wipe
puts "System"
model basic -ndm 3 -ndf 6
puts "restraint"
node 1 0.000E+000 0.000E+000 9.000E+003
node 2 0.000E+000 0.000E+000 1.200E+004
node 3 0.000E+000 6.000E+003 9.000E+003
node 4 0.000E+000 6.000E+003 1.200E+004
node 5 6.000E+003 0.000E+000 9.000E+003
node 6 6.000E+003 0.000E+000 1.200E+004
node 7 6.000E+003 6.000E+003 9.000E+003
node 8 6.000E+003 6.000E+003 1.200E+004
node 9 1.200E+004 0.000E+000 9.000E+003
node 10 1.200E+004 0.000E+000 1.200E+004
node 11 1.200E+004 6.000E+003 9.000E+003
node 12 1.200E+004 6.000E+003 1.200E+004
node 13 1.800E+004 0.000E+000 9.000E+003
node 14 1.800E+004 0.000E+000 1.200E+004
node 15 1.800E+004 6.000E+003 9.000E+003
node 16 1.800E+004 6.000E+003 1.200E+004
node 17 7.000E+003 0.000E+000 9.500E+003
node 18 8.000E+003 0.000E+000 1.000E+004
node 19 9.000E+003 0.000E+000 1.050E+004
node 20 1.000E+004 0.000E+000 1.100E+004
# ... 60 like lines cut
puts "rigidDiaphragm"
puts "mass"
puts "node"
fix 73 1 1 1 1 1 1;
fix 74 1 1 1 1 1 1;
fix 75 1 1 1 1 1 1;
fix 76 1 1 1 1 1 1;
fix 77 1 1 1 1 1 1;
fix 78 1 1 1 1 1 1;
fix 79 1 1 1 1 1 1;
fix 80 1 1 1 1 1 1;
puts "Equal DOF"
puts "material"
uniaxialMaterial Elastic 1 1.999E+005
uniaxialMaterial Steel01 2 295 206000 0.05


uniaxialMaterial Elastic 201 6.729E+008
uniaxialMaterial Elastic 301 1.346E+009
uniaxialMaterial Elastic 401 9.892E+011
uniaxialMaterial Elastic 202 2.307E+008
uniaxialMaterial Elastic 302 1.346E+009
uniaxialMaterial Elastic 402 6.727E+011
uniaxialMaterial Elastic 203 6.895E+007
uniaxialMaterial Elastic 303 1.379E+008
uniaxialMaterial Elastic 403 3.309E+010
##DHC300X300X35X35 
section Fiber 1 -GJ 9.892E+011 {
fiber -1.200E+002 -1.325E+002 2.100E+003 1
fiber -6.000E+001 -1.325E+002 2.100E+003 1
fiber 0.000E+000 -1.325E+002 2.100E+003 1
fiber 6.000E+001 -1.325E+002 2.100E+003 1
fiber 1.200E+002 -1.325E+002 2.100E+003 1
fiber -1.200E+002 1.325E+002 2.100E+003 1
fiber -6.000E+001 1.325E+002 2.100E+003 1
fiber 0.000E+000 1.325E+002 2.100E+003 1
fiber 6.000E+001 1.325E+002 2.100E+003 1
fiber 1.200E+002 1.325E+002 2.100E+003 1
fiber 0.000E+000 -9.200E+001 1.610E+003 1
fiber 0.000E+000 -4.600E+001 1.610E+003 1
fiber 0.000E+000 0.000E+000 1.610E+003 1
fiber 0.000E+000 4.600E+001 1.610E+003 1
fiber 0.000E+000 9.200E+001 1.610E+003 1
}
##DHB300X300X35X12 
section Fiber 2 -GJ 6.727E+011 {
fiber -1.200E+002 -1.325E+002 2.100E+003 1
fiber -6.000E+001 -1.325E+002 2.100E+003 1
fiber 0.000E+000 -1.325E+002 2.100E+003 1
fiber 6.000E+001 -1.325E+002 2.100E+003 1
fiber 1.200E+002 -1.325E+002 2.100E+003 1
fiber -1.200E+002 1.325E+002 2.100E+003 1
fiber -6.000E+001 1.325E+002 2.100E+003 1
fiber 0.000E+000 1.325E+002 2.100E+003 1
fiber 6.000E+001 1.325E+002 2.100E+003 1
fiber 1.200E+002 1.325E+002 2.100E+003 1
fiber 0.000E+000 -9.200E+001 5.520E+002 1
fiber 0.000E+000 -4.600E+001 5.520E+002 1
fiber 0.000E+000 0.000E+000 5.520E+002 1
fiber 0.000E+000 4.600E+001 5.520E+002 1
fiber 0.000E+000 9.200E+001 5.520E+002 1
}
##DH400X400X20X20 
section Fiber 3 -GJ 3.309E+010 {
fiber -1.600E+002 -1.900E+002 1.600E+003 2
fiber -8.000E+001 -1.900E+002 1.600E+003 2
fiber 0.000E+000 -1.900E+002 1.600E+003 2
fiber 8.000E+001 -1.900E+002 1.600E+003 2
fiber 1.600E+002 -1.900E+002 1.600E+003 2
fiber -1.600E+002 1.900E+002 1.600E+003 2
fiber -8.000E+001 1.900E+002 1.600E+003 2
fiber 0.000E+000 1.900E+002 1.600E+003 2
fiber 8.000E+001 1.900E+002 1.600E+003 2
fiber 1.600E+002 1.900E+002 1.600E+003 2
fiber 0.000E+000 -1.440E+002 1.440E+003 2
fiber 0.000E+000 -7.200E+001 1.440E+003 2
fiber 0.000E+000 0.000E+000 1.440E+003 2
fiber 0.000E+000 7.200E+001 1.440E+003 2
fiber 0.000E+000 1.440E+002 1.440E+003 2
}
section Aggregator 1001 201 Vy 301 Vz 401 T -section 1
section Aggregator 1002 202 Vy 302 Vz 402 T -section 2
section Aggregator 1003 203 Vy 303 Vz 403 T -section 3

puts "transformation"
geomTransf Linear 1 1.000 0.000 0.000 
geomTransf Linear 2 1.000 0.000 0.000 
geomTransf Linear 3 1.000 0.000 0.000 
geomTransf Linear 4 1.000 0.000 0.000 
geomTransf Linear 5 1.000 0.000 0.000 
geomTransf Linear 6 1.000 0.000 0.000 
geomTransf Linear 7 1.000 0.000 0.000 
geomTransf Linear 8 1.000 0.000 0.000 
geomTransf Linear 9 0.000 0.000 1.000 
geomTransf Linear 10 0.000 0.000 1.000 
geomTransf Linear 11 0.000 0.000 1.000 
geomTransf Linear 12 0.000 0.000 1.000 
geomTransf Linear 13 0.000 0.000 1.000 
geomTransf Linear 14 0.000 0.000 1.000 
geomTransf Linear 15 0.000 0.000 1.000 
geomTransf Linear 16 0.000 0.000 1.000 
geomTransf Linear 17 0.000 0.000 1.000 
geomTransf Linear 18 0.000 0.000 1.000 
geomTransf Linear 19 -0.447 0.000 0.894 
geomTransf Linear 20 -0.447 0.000 0.894 
# ... 100 like lines cut

puts "element"
element dispBeamColumn 1 1 2 3 1001 1
element dispBeamColumn 2 3 4 3 1001 2
element dispBeamColumn 3 5 6 3 1001 3
element dispBeamColumn 4 7 8 3 1001 4
element dispBeamColumn 5 9 10 3 1001 5
element dispBeamColumn 6 11 12 3 1001 6
element dispBeamColumn 7 13 14 3 1001 7
element dispBeamColumn 8 15 16 3 1001 8
element dispBeamColumn 9 2 4 3 1002 9
element dispBeamColumn 10 6 8 3 1002 10
element dispBeamColumn 11 10 12 3 1002 11
element dispBeamColumn 12 14 16 3 1002 12
element dispBeamColumn 13 2 6 3 1002 13
element dispBeamColumn 14 6 10 3 1002 14
element dispBeamColumn 15 10 14 3 1002 15
element dispBeamColumn 16 4 8 3 1002 16
element dispBeamColumn 17 8 12 3 1002 17
element dispBeamColumn 18 12 16 3 1002 18
element dispBeamColumn 19 5 17 3 1003 19
element dispBeamColumn 20 17 18 3 1003 20
# ... 100 like lines cut
puts "shell element"
puts "SOLID element"
puts "recorder"
puts "gravity"
## Load Case = DEAD
pattern Plain 1 Linear {
eleLoad -ele 9 -type -beamUniform 0 -1.200E+001 0
eleLoad -ele 10 -type -beamUniform 0 -1.200E+001 0
eleLoad -ele 11 -type -beamUniform 0 -1.200E+001 0
eleLoad -ele 12 -type -beamUniform 0 -1.200E+001 0
eleLoad -ele 13 -type -beamUniform 0 -1.200E+001 0
eleLoad -ele 14 -type -beamUniform 0 -1.200E+001 0
eleLoad -ele 15 -type -beamUniform 0 -1.200E+001 0
eleLoad -ele 16 -type -beamUniform 0 -1.200E+001 0
eleLoad -ele 17 -type -beamUniform 0 -1.200E+001 0
eleLoad -ele 18 -type -beamUniform 0 -1.200E+001 0
eleLoad -ele 39 -type -beamUniform 0 -1.200E+001 0
eleLoad -ele 40 -type -beamUniform 0 -1.200E+001 0
eleLoad -ele 41 -type -beamUniform 0 -1.200E+001 0
eleLoad -ele 42 -type -beamUniform 0 -1.200E+001 0
eleLoad -ele 43 -type -beamUniform 0 -1.200E+001 0
eleLoad -ele 44 -type -beamUniform 0 -1.200E+001 0
eleLoad -ele 45 -type -beamUniform 0 -1.200E+001 0
eleLoad -ele 46 -type -beamUniform 0 -1.200E+001 0
eleLoad -ele 47 -type -beamUniform 0 -1.200E+001 0
eleLoad -ele 48 -type -beamUniform 0 -1.200E+001 0
# ... 20 like lines cut
}
puts "analysis"
constraints Plain
numberer Plain
system BandGeneral
test EnergyIncr 1.0e-6 200
algorithm Newton
integrator LoadControl 1.000E-001
analysis Static
analyze 10

loadConst -time 0.0

recorder Node -file node0.out -time -nodeRange 1 80 -dof 1 2 3 disp
recorder Node -file node2.out -time -node 2 -dof 1 2 3 disp

recorder Element -file ele79a.out -time -ele 79 localForce
recorder Element -file ele79b.out -time -ele 79 section 1 deformation


puts "pushover"
## Load Case = PUSH
pattern Plain 3 Linear {
load 2 4.000E+005 0.000E+000 0.000E+000 0.000E+000 0.000E+000 0.000E+000
load 4 4.000E+005 0.000E+000 0.000E+000 0.000E+000 0.000E+000 0.000E+000
load 1 3.000E+005 0.000E+000 0.000E+000 0.000E+000 0.000E+000 0.000E+000
load 3 3.000E+005 0.000E+000 0.000E+000 0.000E+000 0.000E+000 0.000E+000
load 37 2.000E+005 0.000E+000 0.000E+000 0.000E+000 0.000E+000 0.000E+000
load 38 2.000E+005 0.000E+000 0.000E+000 0.000E+000 0.000E+000 0.000E+000
load 55 1.000E+005 0.000E+000 0.000E+000 0.000E+000 0.000E+000 0.000E+000
load 56 1.000E+005 0.000E+000 0.000E+000 0.000E+000 0.000E+000 0.000E+000
}
puts "analysis"
constraints Plain
numberer Plain
system BandGeneral
test EnergyIncr 1.0e-6 200
algorithm Newton
integrator DisplacementControl 25 1 4
analysis Static
analyze 50

integrator DisplacementControl 25 1 -8
analyze 50
integrator DisplacementControl 25 1 12
analyze 50
integrator DisplacementControl 25 1 -16
analyze 50