set num 604
while {$num<681} {
	wipe
	puts "System"
	model basic -ndm 3 -ndf 6
	puts "restraint"
	node 1 -3.240E+002 -2.760E+001 0.000E+000
	node 2 -3.240E+002 2.760E+001 0.000E+000
	node 3 3.240E+002 -2.760E+001 0.000E+000
	node 4 3.240E+002 2.760E+001 0.000E+000
	node 5 -3.240E+002 -2.020E+001 3.570E+001
	node 6 -3.240E+002 2.020E+001 3.570E+001
	node 7 -3.240E+002 -1.880E+001 4.210E+001
	node 8 -3.240E+002 1.880E+001 4.210E+001
	node 9 -3.240E+002 -1.690E+001 5.210E+001
	node 10 -3.240E+002 1.690E+001 5.210E+001
	node 11 -3.240E+002 -1.510E+001 6.210E+001
	node 12 -3.240E+002 1.510E+001 6.210E+001
	node 13 -3.240E+002 -1.350E+001 7.210E+001
	node 14 -3.240E+002 1.350E+001 7.210E+001
	node 15 -3.240E+002 -1.200E+001 8.210E+001
	node 16 -3.240E+002 1.200E+001 8.210E+001
	node 17 -3.240E+002 -1.060E+001 9.210E+001
	node 18 -3.240E+002 1.060E+001 9.210E+001
	node 19 -3.240E+002 -9.400E+000 1.021E+002
	node 20 -3.240E+002 9.400E+000 1.021E+002
# ... 662 like lines cut
	puts "rigidDiaphragm"
	puts "mass"
	puts "node"
	fix 1 1 1 1 1 1 1;
	fix 2 1 1 1 1 1 1;
	fix 3 1 1 1 1 1 1;
	fix 4 1 1 1 1 1 1;
	puts "Equal DOF"
	equalDOF 148 149 1 2 3
	equalDOF 73 150 1 2 3
	equalDOF 151 152 1 2 3
	equalDOF 74 153 1 2 3
	equalDOF 154 155 1 2 3
	equalDOF 70 156 1 2 3
	equalDOF 157 158 1 2 3
	equalDOF 72 159 1 2 3
	equalDOF 160 161 1 2 3
	equalDOF 69 162 1 2 3
	equalDOF 163 164 1 2 3
	equalDOF 71 165 1 2 3
	equalDOF 166 167 1 2 3
	equalDOF 65 168 1 2 3
	equalDOF 169 170 1 2 3
	equalDOF 66 171 1 2 3
	equalDOF 172 173 1 2 3
	equalDOF 61 174 1 2 3
	equalDOF 175 176 1 2 3
	equalDOF 63 177 1 2 3
# ... 284 like lines cut
	puts "material"
	uniaxialMaterial Elastic 1 1.999E+011
	uniaxialMaterial Elastic 2 2.482E+010
	uniaxialMaterial Elastic 3 1.999E+011
	uniaxialMaterial Elastic 4 2.550E+010
	uniaxialMaterial Elastic 5 3.000E+010
	uniaxialMaterial Elastic 6 3.150E+010
	uniaxialMaterial Elastic 7 2.800E+010
	uniaxialMaterial Elastic 8 3.250E+010
	uniaxialMaterial Elastic 9 3.350E+010
	uniaxialMaterial Elastic 10 3.450E+010
	uniaxialMaterial Elastic 11 3.550E+010
	uniaxialMaterial Elastic 12 3.600E+010
	uniaxialMaterial Elastic 13 3.650E+010
	uniaxialMaterial Elastic 14 3.700E+010
	uniaxialMaterial Elastic 15 3.750E+010
	uniaxialMaterial Elastic 16 3.800E+010
	uniaxialMaterial Elastic 17 2.060E+011
	uniaxialMaterial ElasticPPGap 18 2.060E+011 335 0
	uniaxialMaterial Elastic 19 2.060E+011
	uniaxialMaterial Elastic 20 2.060E+011
	##CABLE 
	section Fiber 3 {
	fiber 3.000E-002 0.000E+000 3.770E-004 18
	fiber 2.853E-002 9.271E-003 3.770E-004 18
	fiber 2.427E-002 1.763E-002 3.770E-004 18
	fiber 1.763E-002 2.427E-002 3.770E-004 18
	fiber 9.271E-003 2.853E-002 3.770E-004 18
	fiber -8.132E-022 3.000E-002 3.770E-004 18
	fiber -9.271E-003 2.853E-002 3.770E-004 18
	fiber -1.763E-002 2.427E-002 3.770E-004 18
	fiber -2.427E-002 1.763E-002 3.770E-004 18
	fiber -2.853E-002 9.271E-003 3.770E-004 18
	fiber -3.000E-002 -1.626E-021 3.770E-004 18
	fiber -2.853E-002 -9.271E-003 3.770E-004 18
	fiber -2.427E-002 -1.763E-002 3.770E-004 18
	fiber -1.763E-002 -2.427E-002 3.770E-004 18
	fiber -9.271E-003 -2.853E-002 3.770E-004 18
	fiber 5.692E-021 -3.000E-002 3.770E-004 18
	fiber 9.271E-003 -2.853E-002 3.770E-004 18
	fiber 1.763E-002 -2.427E-002 3.770E-004 18
	fiber 2.427E-002 -1.763E-002 3.770E-004 18
	fiber 2.853E-002 -9.271E-003 3.770E-004 18
	}
	puts "transformation"
	geomTransf Linear 1 0.000 -0.979 0.203 
	geomTransf Linear 2 0.000 0.979 0.203 
	geomTransf Linear 3 0.000 -0.977 0.214 
	geomTransf Linear 4 0.000 0.977 0.214 
	geomTransf Linear 5 0.000 -0.982 0.187 
	geomTransf Linear 6 0.000 0.982 0.187 
	geomTransf Linear 7 0.000 -0.984 0.177 
	geomTransf Linear 8 0.000 0.984 0.177 
	geomTransf Linear 9 0.000 -0.987 0.158 
	geomTransf Linear 10 0.000 0.987 0.158 
	geomTransf Linear 11 0.000 -0.989 0.148 
	geomTransf Linear 12 0.000 0.989 0.148 
	geomTransf Linear 13 0.000 -0.990 0.139 
	geomTransf Linear 14 0.000 0.990 0.139 
	geomTransf Linear 15 0.000 -0.993 0.119 
	geomTransf Linear 16 0.000 0.993 0.119 
	geomTransf Linear 17 0.000 -0.994 0.109 
	geomTransf Linear 18 0.000 0.994 0.109 
	geomTransf Linear 19 0.000 -0.996 0.090 
	geomTransf Linear 20 0.000 0.996 0.090 
# ... 357 like lines cut
	puts "element"
	element elasticBeamColumn 1 1 5 4.900E+001 3.450E+010 1.438E+010 3.381E+002 2.001E+002 2.001E+002 1
	element elasticBeamColumn 2 2 6 4.900E+001 3.450E+010 1.438E+010 3.381E+002 2.001E+002 2.001E+002 2
	element elasticBeamColumn 3 5 7 4.900E+001 3.450E+010 1.438E+010 3.381E+002 2.001E+002 2.001E+002 3
	element elasticBeamColumn 4 6 8 4.900E+001 3.450E+010 1.438E+010 3.381E+002 2.001E+002 2.001E+002 4
	element elasticBeamColumn 5 7 9 4.900E+001 3.450E+010 1.438E+010 3.381E+002 2.001E+002 2.001E+002 5
	element elasticBeamColumn 6 8 10 4.900E+001 3.450E+010 1.438E+010 3.381E+002 2.001E+002 2.001E+002 6
	element elasticBeamColumn 7 9 11 4.900E+001 3.450E+010 1.438E+010 3.381E+002 2.001E+002 2.001E+002 7
	element elasticBeamColumn 8 10 12 4.900E+001 3.450E+010 1.438E+010 3.381E+002 2.001E+002 2.001E+002 8
	element elasticBeamColumn 9 11 13 4.900E+001 3.450E+010 1.438E+010 3.381E+002 2.001E+002 2.001E+002 9
	element elasticBeamColumn 10 12 14 4.900E+001 3.450E+010 1.438E+010 3.381E+002 2.001E+002 2.001E+002 10
	element elasticBeamColumn 11 13 15 4.900E+001 3.450E+010 1.438E+010 3.381E+002 2.001E+002 2.001E+002 11
	element elasticBeamColumn 12 14 16 4.900E+001 3.450E+010 1.438E+010 3.381E+002 2.001E+002 2.001E+002 12
	element elasticBeamColumn 13 15 17 4.900E+001 3.450E+010 1.438E+010 3.381E+002 2.001E+002 2.001E+002 13
	element elasticBeamColumn 14 16 18 4.900E+001 3.450E+010 1.438E+010 3.381E+002 2.001E+002 2.001E+002 14
	element elasticBeamColumn 15 17 19 4.900E+001 3.450E+010 1.438E+010 3.381E+002 2.001E+002 2.001E+002 15
	element elasticBeamColumn 16 18 20 4.900E+001 3.450E+010 1.438E+010 3.381E+002 2.001E+002 2.001E+002 16
	element elasticBeamColumn 17 19 21 4.900E+001 3.450E+010 1.438E+010 3.381E+002 2.001E+002 2.001E+002 17
	element elasticBeamColumn 18 20 22 4.900E+001 3.450E+010 1.438E+010 3.381E+002 2.001E+002 2.001E+002 18
	element elasticBeamColumn 19 21 23 4.900E+001 3.450E+010 1.438E+010 3.381E+002 2.001E+002 2.001E+002 19
	element elasticBeamColumn 20 22 24 4.900E+001 3.450E+010 1.438E+010 3.381E+002 2.001E+002 2.001E+002 20
# ... 127 like lines cut
	element zeroLength 148 148 149 -mat 18 18 18 -dir 4 5 6
	element trussSection 149 149 150 3
	element zeroLength 150 150 73 -mat 18 18 18 -dir 4 5 6
	element zeroLength 151 151 152 -mat 18 18 18 -dir 4 5 6
	element trussSection 152 152 153 3
	element zeroLength 153 153 74 -mat 18 18 18 -dir 4 5 6
	element zeroLength 154 154 155 -mat 18 18 18 -dir 4 5 6
	element trussSection 155 155 156 3
	element zeroLength 156 156 70 -mat 18 18 18 -dir 4 5 6
	element zeroLength 157 157 158 -mat 18 18 18 -dir 4 5 6
	element trussSection 158 158 159 3
	element zeroLength 159 159 72 -mat 18 18 18 -dir 4 5 6
	element zeroLength 160 160 161 -mat 18 18 18 -dir 4 5 6
	element trussSection 161 161 162 3
	element zeroLength 162 162 69 -mat 18 18 18 -dir 4 5 6
	element zeroLength 163 163 164 -mat 18 18 18 -dir 4 5 6
	element trussSection 164 164 165 3
	element zeroLength 165 165 71 -mat 18 18 18 -dir 4 5 6
	element zeroLength 166 166 167 -mat 18 18 18 -dir 4 5 6
	element trussSection 167 167 168 3
	element zeroLength 168 168 65 -mat 18 18 18 -dir 4 5 6
	element zeroLength 169 169 170 -mat 18 18 18 -dir 4 5 6
	element trussSection 170 170 171 3
	element zeroLength 171 171 66 -mat 18 18 18 -dir 4 5 6
	element zeroLength 172 172 173 -mat 18 18 18 -dir 4 5 6
	element trussSection 173 173 174 3
	element zeroLength 174 174 61 -mat 18 18 18 -dir 4 5 6
	element zeroLength 175 175 176 -mat 18 18 18 -dir 4 5 6
	element trussSection 176 176 177 3
	element zeroLength 177 177 63 -mat 18 18 18 -dir 4 5 6
	element zeroLength 178 178 179 -mat 18 18 18 -dir 4 5 6
	element trussSection 179 179 180 3
	element zeroLength 180 180 57 -mat 18 18 18 -dir 4 5 6
	element zeroLength 181 181 182 -mat 18 18 18 -dir 4 5 6
	element trussSection 182 182 183 3
	element zeroLength 183 183 58 -mat 18 18 18 -dir 4 5 6
	element zeroLength 184 184 185 -mat 18 18 18 -dir 4 5 6
	element trussSection 185 185 186 3
	element zeroLength 186 186 55 -mat 18 18 18 -dir 4 5 6
	element zeroLength 187 187 188 -mat 18 18 18 -dir 4 5 6
	element trussSection 188 188 189 3
	element zeroLength 189 189 56 -mat 18 18 18 -dir 4 5 6
	element zeroLength 190 190 191 -mat 18 18 18 -dir 4 5 6
	element trussSection 191 191 192 3
	element zeroLength 192 192 53 -mat 18 18 18 -dir 4 5 6
	element zeroLength 193 193 194 -mat 18 18 18 -dir 4 5 6
	element trussSection 194 194 195 3
	element zeroLength 195 195 54 -mat 18 18 18 -dir 4 5 6
	element zeroLength 196 196 197 -mat 18 18 18 -dir 4 5 6
	element trussSection 197 197 198 3
	element zeroLength 198 198 51 -mat 18 18 18 -dir 4 5 6
	element zeroLength 199 199 200 -mat 18 18 18 -dir 4 5 6
	element trussSection 200 200 201 3
	element zeroLength 201 201 52 -mat 18 18 18 -dir 4 5 6
	element zeroLength 202 202 203 -mat 18 18 18 -dir 4 5 6
	element trussSection 203 203 204 3
	element zeroLength 204 204 49 -mat 18 18 18 -dir 4 5 6
	element zeroLength 205 205 206 -mat 18 18 18 -dir 4 5 6
	element trussSection 206 206 207 3
	element zeroLength 207 207 50 -mat 18 18 18 -dir 4 5 6
# ... 396 like lines cut
	element elasticBeamColumn 604 604 605 1.344E+002 3.450E+010 1.438E+010 6.630E+002 1.792E+002 1.264E+004 604
	element elasticBeamColumn 605 605 606 1.344E+002 3.450E+010 1.438E+010 6.630E+002 1.792E+002 1.264E+004 605
	element elasticBeamColumn 606 606 607 1.344E+002 3.450E+010 1.438E+010 6.630E+002 1.792E+002 1.264E+004 606
	element elasticBeamColumn 607 607 608 1.344E+002 3.450E+010 1.438E+010 6.630E+002 1.792E+002 1.264E+004 607
	element elasticBeamColumn 608 608 609 1.344E+002 3.450E+010 1.438E+010 6.630E+002 1.792E+002 1.264E+004 608
	element elasticBeamColumn 609 609 610 1.344E+002 3.450E+010 1.438E+010 6.630E+002 1.792E+002 1.264E+004 609
	element elasticBeamColumn 610 610 611 1.344E+002 3.450E+010 1.438E+010 6.630E+002 1.792E+002 1.264E+004 610
	element elasticBeamColumn 611 611 612 1.344E+002 3.450E+010 1.438E+010 6.630E+002 1.792E+002 1.264E+004 611
	element elasticBeamColumn 612 612 613 1.344E+002 3.450E+010 1.438E+010 6.630E+002 1.792E+002 1.264E+004 612
	element elasticBeamColumn 613 613 614 1.344E+002 3.450E+010 1.438E+010 6.630E+002 1.792E+002 1.264E+004 613
	element elasticBeamColumn 614 614 615 1.344E+002 3.450E+010 1.438E+010 6.630E+002 1.792E+002 1.264E+004 614
	element elasticBeamColumn 615 615 616 1.344E+002 3.450E+010 1.438E+010 6.630E+002 1.792E+002 1.264E+004 615
	element elasticBeamColumn 616 616 617 1.344E+002 3.450E+010 1.438E+010 6.630E+002 1.792E+002 1.264E+004 616
	element elasticBeamColumn 617 617 618 1.344E+002 3.450E+010 1.438E+010 6.630E+002 1.792E+002 1.264E+004 617
	element elasticBeamColumn 618 618 619 1.344E+002 3.450E+010 1.438E+010 6.630E+002 1.792E+002 1.264E+004 618
	element elasticBeamColumn 619 619 620 1.344E+002 3.450E+010 1.438E+010 6.630E+002 1.792E+002 1.264E+004 619
	element elasticBeamColumn 620 620 621 1.344E+002 3.450E+010 1.438E+010 6.630E+002 1.792E+002 1.264E+004 620
	element elasticBeamColumn 621 621 622 1.344E+002 3.450E+010 1.438E+010 6.630E+002 1.792E+002 1.264E+004 621
	element elasticBeamColumn 622 622 623 1.344E+002 3.450E+010 1.438E+010 6.630E+002 1.792E+002 1.264E+004 622
	element elasticBeamColumn 623 623 624 1.344E+002 3.450E+010 1.438E+010 6.630E+002 1.792E+002 1.264E+004 623
# ... 210 like lines cut
	puts "shell element"
	puts "SOLID element"
	puts "recorder"
	set filename1 "Ele1-$num.out"
	set filename374 "Ele374-$num.out"
	set filename641 "Ele641-$num.out"
    recorder Element -file $filename1 -time -ele 1 localForce
	recorder Element -file $filename374 -time -ele 374 localForce
	recorder Element -file $filename641 -time -ele 641 localForce
	puts "Loading At Node: $num"
	pattern Plain $num Linear {
	load $num 0.000E+000 0.000E+000 -1.000E+000 0.000E+000 0.000E+000 0.000E+000
	}
	constraints Plain
	numberer Plain
	system BandGeneral
	test EnergyIncr 1.0e-6 200
	algorithm Newton
	integrator LoadControl 1.000E+000
	analysis Static
	analyze 1
	set num [expr {$num + 1}]
}
	




