wipe
puts "System"
model basic -ndm 3 -ndf 6
puts "restraint"
node 1 0.000E+000 1.000E+004 3.350E+004
node 2 0.000E+000 1.000E+004 3.650E+004
node 3 4.000E+003 1.000E+004 3.350E+004
node 4 4.000E+003 1.000E+004 3.650E+004
node 5 8.000E+003 1.000E+004 3.350E+004
node 6 8.000E+003 1.000E+004 3.650E+004
node 7 8.000E+003 5.000E+003 3.350E+004
node 8 8.000E+003 5.000E+003 3.650E+004
node 9 4.000E+003 5.000E+003 3.350E+004
node 10 4.000E+003 5.000E+003 3.650E+004
node 11 4.000E+003 0.000E+000 3.350E+004
node 12 4.000E+003 0.000E+000 3.650E+004
node 13 8.000E+003 0.000E+000 3.350E+004
node 14 8.000E+003 0.000E+000 3.650E+004
node 15 0.000E+000 0.000E+000 3.350E+004
node 16 0.000E+000 0.000E+000 3.650E+004
node 17 0.000E+000 5.000E+003 3.350E+004
node 18 0.000E+000 5.000E+003 3.650E+004
node 19 0.000E+000 1.000E+004 3.050E+004
node 20 4.000E+003 1.000E+004 3.050E+004
# ... 106 like lines cut
puts "rigidDiaphragm"
puts "mass"
mass 1 5.553E+000 5.553E+000 0.000E+000 0.000E+000 0.000E+000 0.000E+000
mass 2 4.824E+000 4.824E+000 0.000E+000 0.000E+000 0.000E+000 0.000E+000
mass 3 9.033E+000 9.033E+000 0.000E+000 0.000E+000 0.000E+000 0.000E+000
mass 4 8.304E+000 8.304E+000 0.000E+000 0.000E+000 0.000E+000 0.000E+000
mass 5 5.553E+000 5.553E+000 0.000E+000 0.000E+000 0.000E+000 0.000E+000
mass 6 4.824E+000 4.824E+000 0.000E+000 0.000E+000 0.000E+000 0.000E+000
mass 7 9.168E+000 9.168E+000 0.000E+000 0.000E+000 0.000E+000 0.000E+000
mass 8 8.439E+000 8.439E+000 0.000E+000 0.000E+000 0.000E+000 0.000E+000
mass 9 1.565E+001 1.565E+001 0.000E+000 0.000E+000 0.000E+000 0.000E+000
mass 10 1.492E+001 1.492E+001 0.000E+000 0.000E+000 0.000E+000 0.000E+000
mass 11 9.033E+000 9.033E+000 0.000E+000 0.000E+000 0.000E+000 0.000E+000
mass 12 8.304E+000 8.304E+000 0.000E+000 0.000E+000 0.000E+000 0.000E+000
mass 13 5.553E+000 5.553E+000 0.000E+000 0.000E+000 0.000E+000 0.000E+000
mass 14 4.824E+000 4.824E+000 0.000E+000 0.000E+000 0.000E+000 0.000E+000
mass 15 5.553E+000 5.553E+000 0.000E+000 0.000E+000 0.000E+000 0.000E+000
mass 16 4.824E+000 4.824E+000 0.000E+000 0.000E+000 0.000E+000 0.000E+000
mass 17 9.168E+000 9.168E+000 0.000E+000 0.000E+000 0.000E+000 0.000E+000
mass 18 8.439E+000 8.439E+000 0.000E+000 0.000E+000 0.000E+000 0.000E+000
mass 19 5.553E+000 5.553E+000 0.000E+000 0.000E+000 0.000E+000 0.000E+000
mass 20 9.033E+000 9.033E+000 0.000E+000 0.000E+000 0.000E+000 0.000E+000
# ... 97 like lines cut
puts "node"
fix 109 1 1 1 1 1 1;
fix 110 1 1 1 1 1 1;
fix 111 1 1 1 1 1 1;
fix 112 1 1 1 1 1 1;
fix 113 1 1 1 1 1 1;
fix 114 1 1 1 1 1 1;
fix 115 1 1 1 1 1 1;
fix 116 1 1 1 1 1 1;
fix 117 1 1 1 1 1 1;
puts "Equal DOF"
puts "material"
uniaxialMaterial Elastic 1 1.999E+005
uniaxialMaterial Elastic 2 2.482E+004
uniaxialMaterial Elastic 3 1.999E+005
puts "transformation"
geomTransf Linear 1 1.000 0.000 0.000 
geomTransf Linear 2 1.000 0.000 0.000 
geomTransf Linear 3 1.000 0.000 0.000 
geomTransf Linear 4 1.000 0.000 0.000 
geomTransf Linear 5 1.000 0.000 0.000 
geomTransf Linear 6 1.000 0.000 0.000 
geomTransf Linear 7 1.000 0.000 0.000 
geomTransf Linear 8 1.000 0.000 0.000 
geomTransf Linear 9 1.000 0.000 0.000 
geomTransf Linear 10 0.000 0.000 1.000 
geomTransf Linear 11 0.000 0.000 1.000 
geomTransf Linear 12 0.000 0.000 1.000 
geomTransf Linear 13 0.000 0.000 1.000 
geomTransf Linear 14 0.000 0.000 1.000 
geomTransf Linear 15 0.000 0.000 1.000 
geomTransf Linear 16 0.000 0.000 1.000 
geomTransf Linear 17 0.000 0.000 1.000 
geomTransf Linear 18 0.000 0.000 1.000 
geomTransf Linear 19 0.000 0.000 1.000 
geomTransf Linear 20 0.000 0.000 1.000 
# ... 241 like lines cut
puts "element"
element elasticBeamColumn 1 1 2 2.025E+005 2.482E+004 1.034E+004 5.775E+009 3.417E+009 3.417E+009 1
element elasticBeamColumn 2 3 4 2.025E+005 2.482E+004 1.034E+004 5.775E+009 3.417E+009 3.417E+009 2
element elasticBeamColumn 3 5 6 2.025E+005 2.482E+004 1.034E+004 5.775E+009 3.417E+009 3.417E+009 3
element elasticBeamColumn 4 7 8 2.025E+005 2.482E+004 1.034E+004 5.775E+009 3.417E+009 3.417E+009 4
element elasticBeamColumn 5 9 10 2.025E+005 2.482E+004 1.034E+004 5.775E+009 3.417E+009 3.417E+009 5
element elasticBeamColumn 6 11 12 2.025E+005 2.482E+004 1.034E+004 5.775E+009 3.417E+009 3.417E+009 6
element elasticBeamColumn 7 13 14 2.025E+005 2.482E+004 1.034E+004 5.775E+009 3.417E+009 3.417E+009 7
element elasticBeamColumn 8 15 16 2.025E+005 2.482E+004 1.034E+004 5.775E+009 3.417E+009 3.417E+009 8
element elasticBeamColumn 9 17 18 2.025E+005 2.482E+004 1.034E+004 5.775E+009 3.417E+009 3.417E+009 9
element elasticBeamColumn 10 16 18 1.125E+005 2.482E+004 1.034E+004 1.530E+009 1.898E+009 5.859E+008 10
element elasticBeamColumn 11 18 2 1.125E+005 2.482E+004 1.034E+004 1.530E+009 1.898E+009 5.859E+008 11
element elasticBeamColumn 12 12 10 1.125E+005 2.482E+004 1.034E+004 1.530E+009 1.898E+009 5.859E+008 12
element elasticBeamColumn 13 10 4 1.125E+005 2.482E+004 1.034E+004 1.530E+009 1.898E+009 5.859E+008 13
element elasticBeamColumn 14 14 8 1.125E+005 2.482E+004 1.034E+004 1.530E+009 1.898E+009 5.859E+008 14
element elasticBeamColumn 15 8 6 1.125E+005 2.482E+004 1.034E+004 1.530E+009 1.898E+009 5.859E+008 15
element elasticBeamColumn 16 16 12 1.125E+005 2.482E+004 1.034E+004 1.530E+009 1.898E+009 5.859E+008 16
element elasticBeamColumn 17 12 14 1.125E+005 2.482E+004 1.034E+004 1.530E+009 1.898E+009 5.859E+008 17
element elasticBeamColumn 18 18 10 1.125E+005 2.482E+004 1.034E+004 1.530E+009 1.898E+009 5.859E+008 18
element elasticBeamColumn 19 10 8 1.125E+005 2.482E+004 1.034E+004 1.530E+009 1.898E+009 5.859E+008 19
element elasticBeamColumn 20 2 4 1.125E+005 2.482E+004 1.034E+004 1.530E+009 1.898E+009 5.859E+008 20
# ... 241 like lines cut
puts "shell element"
puts "recorder"
recorder Node -file node2.out -time -node 2 -dof 1 2 3 disp
recorder Element -file ele245.out -time -ele 245 localForce


set xDamp 0.05;
set nEigenI 1;
set nEigenJ 2;
set lambdaN [eigen [expr $nEigenJ]];
set lambdaI [lindex $lambdaN [expr $nEigenI-1]];
set lambdaJ [lindex $lambdaN [expr $nEigenJ-1]];
set omegaI [expr pow($lambdaI,0.5)]; 
set omegaJ [expr pow($lambdaJ,0.5)];
set alphaM [expr $xDamp*(2*$omegaI*$omegaJ)/($omegaI+$omegaJ)]; 
set betaKcurr [expr 2.*$xDamp/($omegaI+$omegaJ)];   
rayleigh $alphaM $betaKcurr 0 0  
  
puts $alphaM
puts $betaKcurr

set IDloadTag 1001;
set iGMfile "GM1X.txt";
set iGMdirection "1"; 
set iGMfact "10";  
set dt 0.02;   
foreach GMdirection $iGMdirection GMfile $iGMfile GMfact $iGMfact { 
incr IDloadTag; 
set GMfatt [expr 1*$iGMfact];  
set AccelSeries "Series -dt $dt -filePath $iGMfile -factor  $GMfatt";
pattern UniformExcitation  $IDloadTag  $GMdirection -accel  $AccelSeries; 
}  
  
constraints Transformation; 
numberer Plain;  
system UmfPack; 
test EnergyIncr 1.0e-4 200; 
algorithm Newton 
integrator Newmark 0.5 0.25 
analysis Transient
analyze 1000 0.02
