wipe
puts "System"
model basic -ndm 3 -ndf 6
puts "restraint"
node 1 3.000E+003 3.000E+003 4.000E+003
node 2 3.000E+003 3.000E+003 8.000E+003
node 3 0.000E+000 3.000E+003 4.000E+003
node 4 0.000E+000 3.000E+003 8.000E+003
node 5 0.000E+000 0.000E+000 4.000E+003
node 6 0.000E+000 0.000E+000 8.000E+003
node 7 3.000E+003 0.000E+000 4.000E+003
node 8 3.000E+003 0.000E+000 8.000E+003
node 9 3.000E+003 3.000E+003 0.000E+000
node 10 0.000E+000 3.000E+003 0.000E+000
node 11 0.000E+000 0.000E+000 0.000E+000
node 12 3.000E+003 0.000E+000 0.000E+000
node 13 3.000E+003 3.000E+003 4.800E+003
node 14 3.000E+003 3.000E+003 5.600E+003
node 15 3.000E+003 3.000E+003 6.400E+003
node 16 3.000E+003 3.000E+003 7.200E+003
node 17 0.000E+000 3.000E+003 4.800E+003
node 18 0.000E+000 3.000E+003 5.600E+003
node 19 0.000E+000 3.000E+003 6.400E+003
node 20 0.000E+000 3.000E+003 7.200E+003
# ... 92 like lines cut
puts "rigidDiaphragm"
puts "mass"
mass 1 9.002E-001 9.002E-001 0.000E+000 0.000E+000 0.000E+000 0.000E+000
mass 2 4.896E-001 4.896E-001 0.000E+000 0.000E+000 0.000E+000 0.000E+000
mass 3 9.002E-001 9.002E-001 0.000E+000 0.000E+000 0.000E+000 0.000E+000
mass 4 4.896E-001 4.896E-001 0.000E+000 0.000E+000 0.000E+000 0.000E+000
mass 5 9.002E-001 9.002E-001 0.000E+000 0.000E+000 0.000E+000 0.000E+000
mass 6 4.896E-001 4.896E-001 0.000E+000 0.000E+000 0.000E+000 0.000E+000
mass 7 9.002E-001 9.002E-001 0.000E+000 0.000E+000 0.000E+000 0.000E+000
mass 8 4.896E-001 4.896E-001 0.000E+000 0.000E+000 0.000E+000 0.000E+000
mass 9 4.106E-001 4.106E-001 0.000E+000 0.000E+000 0.000E+000 0.000E+000
mass 10 4.106E-001 4.106E-001 0.000E+000 0.000E+000 0.000E+000 0.000E+000
mass 11 4.106E-001 4.106E-001 0.000E+000 0.000E+000 0.000E+000 0.000E+000
mass 12 4.106E-001 4.106E-001 0.000E+000 0.000E+000 0.000E+000 0.000E+000
mass 29 9.759E-002 9.759E-002 0.000E+000 0.000E+000 0.000E+000 0.000E+000
mass 30 1.115E-001 1.115E-001 0.000E+000 0.000E+000 0.000E+000 0.000E+000
mass 31 1.115E-001 1.115E-001 0.000E+000 0.000E+000 0.000E+000 0.000E+000
mass 32 9.759E-002 9.759E-002 0.000E+000 0.000E+000 0.000E+000 0.000E+000
mass 33 9.759E-002 9.759E-002 0.000E+000 0.000E+000 0.000E+000 0.000E+000
mass 34 1.115E-001 1.115E-001 0.000E+000 0.000E+000 0.000E+000 0.000E+000
mass 35 1.115E-001 1.115E-001 0.000E+000 0.000E+000 0.000E+000 0.000E+000
mass 36 9.759E-002 9.759E-002 0.000E+000 0.000E+000 0.000E+000 0.000E+000
# ... 24 like lines cut
puts "node"
fix 9 1 1 1 1 1 1;
fix 10 1 1 1 1 1 1;
fix 11 1 1 1 1 1 1;
fix 12 1 1 1 1 1 1;
puts "material"
uniaxialMaterial Steel01 1 295 206000 0.001
#uniaxialMaterial Elastic 1 1.999E+005
uniaxialMaterial Elastic 2 2.482E+004
uniaxialMaterial Elastic 3 1.999E+005
uniaxialMaterial Elastic 201 6.409E+008
uniaxialMaterial Elastic 301 9.613E+008
uniaxialMaterial Elastic 401 4.005E+011
uniaxialMaterial Elastic 202 1.538E+008
uniaxialMaterial Elastic 302 5.127E+008
uniaxialMaterial Elastic 402 9.089E+010
##DH300X400X25X25 
section Fiber 1 {
fiber -1.375E+002 -1.875E+002 6.250E+002 1
fiber -1.125E+002 -1.875E+002 6.250E+002 1
fiber -8.750E+001 -1.875E+002 6.250E+002 1
fiber -6.250E+001 -1.875E+002 6.250E+002 1
fiber -3.750E+001 -1.875E+002 6.250E+002 1
fiber -1.250E+001 -1.875E+002 6.250E+002 1
fiber 1.250E+001 -1.875E+002 6.250E+002 1
fiber 3.750E+001 -1.875E+002 6.250E+002 1
fiber 6.250E+001 -1.875E+002 6.250E+002 1
fiber 8.750E+001 -1.875E+002 6.250E+002 1
fiber 1.125E+002 -1.875E+002 6.250E+002 1
fiber 1.375E+002 -1.875E+002 6.250E+002 1
fiber -1.375E+002 1.875E+002 6.250E+002 1
fiber -1.125E+002 1.875E+002 6.250E+002 1
fiber -8.750E+001 1.875E+002 6.250E+002 1
fiber -6.250E+001 1.875E+002 6.250E+002 1
fiber -3.750E+001 1.875E+002 6.250E+002 1
fiber -1.250E+001 1.875E+002 6.250E+002 1
fiber 1.250E+001 1.875E+002 6.250E+002 1
fiber 3.750E+001 1.875E+002 6.250E+002 1
# ... 16 like lines cut
}
##DH200X200X20X12 
section Fiber 2 {
fiber -9.167E+001 -9.000E+001 3.333E+002 1
fiber -7.500E+001 -9.000E+001 3.333E+002 1
fiber -5.833E+001 -9.000E+001 3.333E+002 1
fiber -4.167E+001 -9.000E+001 3.333E+002 1
fiber -2.500E+001 -9.000E+001 3.333E+002 1
fiber -8.333E+000 -9.000E+001 3.333E+002 1
fiber 8.333E+000 -9.000E+001 3.333E+002 1
fiber 2.500E+001 -9.000E+001 3.333E+002 1
fiber 4.167E+001 -9.000E+001 3.333E+002 1
fiber 5.833E+001 -9.000E+001 3.333E+002 1
fiber 7.500E+001 -9.000E+001 3.333E+002 1
fiber 9.167E+001 -9.000E+001 3.333E+002 1
fiber -9.167E+001 9.000E+001 3.333E+002 1
fiber -7.500E+001 9.000E+001 3.333E+002 1
fiber -5.833E+001 9.000E+001 3.333E+002 1
fiber -4.167E+001 9.000E+001 3.333E+002 1
fiber -2.500E+001 9.000E+001 3.333E+002 1
fiber -8.333E+000 9.000E+001 3.333E+002 1
fiber 8.333E+000 9.000E+001 3.333E+002 1
fiber 2.500E+001 9.000E+001 3.333E+002 1
# ... 16 like lines cut
}
section Aggregator 1001 201 Vy 301 Vz 401 T -section 1
section Aggregator 1002 202 Vy 302 Vz 402 T -section 2
puts "transformation"
geomTransf Linear 1 1.000 0.000 0.000 
geomTransf Linear 2 1.000 0.000 0.000 
geomTransf Linear 3 1.000 0.000 0.000 
geomTransf Linear 4 1.000 0.000 0.000 
geomTransf Linear 5 1.000 0.000 0.000 
geomTransf Linear 6 1.000 0.000 0.000 
geomTransf Linear 7 1.000 0.000 0.000 
geomTransf Linear 8 1.000 0.000 0.000 
geomTransf Linear 9 1.000 0.000 0.000 
geomTransf Linear 10 1.000 0.000 0.000 
geomTransf Linear 11 1.000 0.000 0.000 
geomTransf Linear 12 1.000 0.000 0.000 
geomTransf Linear 13 1.000 0.000 0.000 
geomTransf Linear 14 1.000 0.000 0.000 
geomTransf Linear 15 1.000 0.000 0.000 
geomTransf Linear 16 1.000 0.000 0.000 
geomTransf Linear 17 1.000 0.000 0.000 
geomTransf Linear 18 1.000 0.000 0.000 
geomTransf Linear 19 1.000 0.000 0.000 
geomTransf Linear 20 1.000 0.000 0.000 
# ... 108 like lines cut
puts "element"
element dispBeamColumn 1 1 13 3 1001 1
element dispBeamColumn 2 13 14 3 1001 2
element dispBeamColumn 3 14 15 3 1001 3
element dispBeamColumn 4 15 16 3 1001 4
element dispBeamColumn 5 16 2 3 1001 5
element dispBeamColumn 6 3 17 3 1001 6
element dispBeamColumn 7 17 18 3 1001 7
element dispBeamColumn 8 18 19 3 1001 8
element dispBeamColumn 9 19 20 3 1001 9
element dispBeamColumn 10 20 4 3 1001 10
element dispBeamColumn 11 5 21 3 1001 11
element dispBeamColumn 12 21 22 3 1001 12
element dispBeamColumn 13 22 23 3 1001 13
element dispBeamColumn 14 23 24 3 1001 14
element dispBeamColumn 15 24 6 3 1001 15
element dispBeamColumn 16 7 25 3 1001 16
element dispBeamColumn 17 25 26 3 1001 17
element dispBeamColumn 18 26 27 3 1001 18
element dispBeamColumn 19 27 28 3 1001 19
element dispBeamColumn 20 28 8 3 1001 20
# ... 108 like lines cut
puts "recorder"
recorder Node -file node4.out -time -node 4 -dof 1 2 3 disp
recorder Node -file node0.out -time -nodeRange 1 100 -dof 1 2 3 disp
recorder Node -file node1.out -time -nodeRange 101 112 -dof 1 2 3 disp
puts "gravity"
## Load Case = DEAD
pattern Plain 1 Linear {
load 2 0.000E+000 0.000E+000 -1.000E+005 0.000E+000 0.000E+000 0.000E+000
load 4 0.000E+000 0.000E+000 -1.000E+005 0.000E+000 0.000E+000 0.000E+000
load 6 0.000E+000 0.000E+000 -1.000E+005 0.000E+000 0.000E+000 0.000E+000
load 8 0.000E+000 0.000E+000 -1.000E+005 0.000E+000 0.000E+000 0.000E+000
}
puts "analysis"
constraints Plain
numberer Plain
system BandGeneral
test EnergyIncr 1.0e-6 200
algorithm Newton
integrator LoadControl 0.5
analysis Static
analyze 10
loadConst -time 0.0
puts "pushover"
## Load Case = PUSH
pattern Plain 3 Linear {
load 2 2.500E+002 0.000E+000 0.000E+000 0.000E+000 0.000E+000 0.000E+000
load 4 2.500E+002 0.000E+000 0.000E+000 0.000E+000 0.000E+000 0.000E+000
load 6 2.500E+002 0.000E+000 0.000E+000 0.000E+000 0.000E+000 0.000E+000
load 8 2.500E+002 0.000E+000 0.000E+000 0.000E+000 0.000E+000 0.000E+000
}
puts "analysis"
constraints Plain 
numberer RCM
system UmfPack
test NormDispIncr  1.0e-1 200
algorithm Newton
analysis Static

integrator DisplacementControl 4 1 0.1
analyze 1000
integrator DisplacementControl 4 1 -0.2
analyze 1000
integrator DisplacementControl 4 1 0.225
analyze 1000
integrator DisplacementControl 4 1 -0.250
analyze 1000