wipe
puts "System"
model basic -ndm 3 -ndf 6
puts "restraint"
node 1 0.000E+000 0.000E+000 1.200E+004
node 2 0.000E+000 3.000E+003 1.200E+004
node 3 3.000E+003 0.000E+000 1.200E+004
node 4 3.000E+003 3.000E+003 1.200E+004
node 5 0.000E+000 3.000E+003 9.000E+003
node 6 0.000E+000 0.000E+000 9.000E+003
node 7 3.000E+003 0.000E+000 9.000E+003
node 8 3.000E+003 3.000E+003 9.000E+003
node 9 0.000E+000 3.000E+003 6.000E+003
node 10 0.000E+000 0.000E+000 6.000E+003
node 11 3.000E+003 0.000E+000 6.000E+003
node 12 3.000E+003 3.000E+003 6.000E+003
node 13 3.200E+003 3.000E+003 6.000E+003
node 14 3.200E+003 0.000E+000 6.000E+003
node 15 6.200E+003 0.000E+000 6.000E+003
node 16 6.200E+003 3.000E+003 6.000E+003
node 17 0.000E+000 3.000E+003 3.000E+003
node 18 0.000E+000 0.000E+000 3.000E+003
node 19 3.000E+003 0.000E+000 3.000E+003
node 20 3.000E+003 3.000E+003 3.000E+003
# ... 12 like lines cut
puts "rigidDiaphragm"
puts "mass"
mass 1 8.162E-001 8.162E-001 0.000E+000 0.000E+000 0.000E+000 0.000E+000
mass 2 8.162E-001 8.162E-001 0.000E+000 0.000E+000 0.000E+000 0.000E+000
mass 3 8.162E-001 8.162E-001 0.000E+000 0.000E+000 0.000E+000 0.000E+000
mass 4 8.162E-001 8.162E-001 0.000E+000 0.000E+000 0.000E+000 0.000E+000
mass 5 9.603E-001 9.603E-001 0.000E+000 0.000E+000 0.000E+000 0.000E+000
mass 6 9.603E-001 9.603E-001 0.000E+000 0.000E+000 0.000E+000 0.000E+000
mass 7 9.603E-001 9.603E-001 0.000E+000 0.000E+000 0.000E+000 0.000E+000
mass 8 9.603E-001 9.603E-001 0.000E+000 0.000E+000 0.000E+000 0.000E+000
mass 9 9.603E-001 9.603E-001 0.000E+000 0.000E+000 0.000E+000 0.000E+000
mass 10 9.603E-001 9.603E-001 0.000E+000 0.000E+000 0.000E+000 0.000E+000
mass 11 9.636E-001 9.636E-001 0.000E+000 0.000E+000 0.000E+000 0.000E+000
mass 12 9.636E-001 9.636E-001 0.000E+000 0.000E+000 0.000E+000 0.000E+000
mass 13 8.196E-001 8.196E-001 0.000E+000 0.000E+000 0.000E+000 0.000E+000
mass 14 8.196E-001 8.196E-001 0.000E+000 0.000E+000 0.000E+000 0.000E+000
mass 15 8.162E-001 8.162E-001 0.000E+000 0.000E+000 0.000E+000 0.000E+000
mass 16 8.162E-001 8.162E-001 0.000E+000 0.000E+000 0.000E+000 0.000E+000
mass 17 9.603E-001 9.603E-001 0.000E+000 0.000E+000 0.000E+000 0.000E+000
mass 18 9.603E-001 9.603E-001 0.000E+000 0.000E+000 0.000E+000 0.000E+000
mass 19 9.636E-001 9.636E-001 0.000E+000 0.000E+000 0.000E+000 0.000E+000
mass 20 9.636E-001 9.636E-001 0.000E+000 0.000E+000 0.000E+000 0.000E+000
# ... 12 like lines cut
puts "node"
fix 25 1 1 1 0 0 0;
fix 26 1 1 1 0 0 0;
fix 27 1 1 1 0 0 0;
fix 28 1 1 1 0 0 0;
fix 29 1 1 1 0 0 0;
fix 30 1 1 1 0 0 0;
fix 31 1 1 1 0 0 0;
fix 32 1 1 1 0 0 0;
puts "material"
#uniaxialMaterial Elastic 1 1.999E+005
uniaxialMaterial ElasticPPGap 1 200000 -2e10 -1 
uniaxialMaterial Elastic 2 2.482E+004
uniaxialMaterial Elastic 3 1.999E+005
puts "transformation"
geomTransf Linear 1 0.000 0.000 1.000 
geomTransf Linear 2 0.000 0.000 1.000 
geomTransf Linear 3 0.000 0.000 1.000 
geomTransf Linear 4 0.000 0.000 1.000 
geomTransf Linear 5 1.000 0.000 0.000 
geomTransf Linear 6 1.000 0.000 0.000 
geomTransf Linear 7 1.000 0.000 0.000 
geomTransf Linear 8 1.000 0.000 0.000 
geomTransf Linear 9 0.000 0.000 1.000 
geomTransf Linear 10 0.000 0.000 1.000 
geomTransf Linear 11 0.000 0.000 1.000 
geomTransf Linear 12 0.000 0.000 1.000 
geomTransf Linear 13 1.000 0.000 0.000 
geomTransf Linear 14 1.000 0.000 0.000 
geomTransf Linear 15 1.000 0.000 0.000 
geomTransf Linear 16 1.000 0.000 0.000 
geomTransf Linear 17 0.000 0.000 1.000 
geomTransf Linear 18 0.000 0.000 1.000 
geomTransf Linear 19 0.000 0.000 1.000 
geomTransf Linear 20 0.000 0.000 1.000 
# ... 28 like lines cut
puts "element"
element elasticBeamColumn 1 1 2 1.000E+005 2.482E+004 1.034E+004 9.981E+008 2.083E+009 3.333E+008 1
element elasticBeamColumn 2 1 3 1.000E+005 2.482E+004 1.034E+004 9.981E+008 2.083E+009 3.333E+008 2
element elasticBeamColumn 3 2 4 1.000E+005 2.482E+004 1.034E+004 9.981E+008 2.083E+009 3.333E+008 3
element elasticBeamColumn 4 4 3 1.000E+005 2.482E+004 1.034E+004 9.981E+008 2.083E+009 3.333E+008 4
element elasticBeamColumn 5 5 2 4.000E+004 2.482E+004 1.034E+004 2.253E+008 1.333E+008 1.333E+008 5
element elasticBeamColumn 6 6 1 4.000E+004 2.482E+004 1.034E+004 2.253E+008 1.333E+008 1.333E+008 6
element elasticBeamColumn 7 7 3 4.000E+004 2.482E+004 1.034E+004 2.253E+008 1.333E+008 1.333E+008 7
element elasticBeamColumn 8 8 4 4.000E+004 2.482E+004 1.034E+004 2.253E+008 1.333E+008 1.333E+008 8
element elasticBeamColumn 9 6 5 1.000E+005 2.482E+004 1.034E+004 9.981E+008 2.083E+009 3.333E+008 9
element elasticBeamColumn 10 6 7 1.000E+005 2.482E+004 1.034E+004 9.981E+008 2.083E+009 3.333E+008 10
element elasticBeamColumn 11 5 8 1.000E+005 2.482E+004 1.034E+004 9.981E+008 2.083E+009 3.333E+008 11
element elasticBeamColumn 12 8 7 1.000E+005 2.482E+004 1.034E+004 9.981E+008 2.083E+009 3.333E+008 12
element elasticBeamColumn 13 9 5 4.000E+004 2.482E+004 1.034E+004 2.253E+008 1.333E+008 1.333E+008 13
element elasticBeamColumn 14 10 6 4.000E+004 2.482E+004 1.034E+004 2.253E+008 1.333E+008 1.333E+008 14
element elasticBeamColumn 15 11 7 4.000E+004 2.482E+004 1.034E+004 2.253E+008 1.333E+008 1.333E+008 15
element elasticBeamColumn 16 12 8 4.000E+004 2.482E+004 1.034E+004 2.253E+008 1.333E+008 1.333E+008 16
element elasticBeamColumn 17 10 9 1.000E+005 2.482E+004 1.034E+004 9.981E+008 2.083E+009 3.333E+008 17
element elasticBeamColumn 18 15 16 1.000E+005 2.482E+004 1.034E+004 9.981E+008 2.083E+009 3.333E+008 18
element elasticBeamColumn 19 10 11 1.000E+005 2.482E+004 1.034E+004 9.981E+008 2.083E+009 3.333E+008 19
element elasticBeamColumn 20 14 15 1.000E+005 2.482E+004 1.034E+004 9.981E+008 2.083E+009 3.333E+008 20
# ... 12 like lines cut
element truss 33 11 14 4.265E+003 1
element truss 34 12 13 4.265E+003 1
element elasticBeamColumn 35 18 17 1.000E+005 2.482E+004 1.034E+004 9.981E+008 2.083E+009 3.333E+008 35
element elasticBeamColumn 36 23 24 1.000E+005 2.482E+004 1.034E+004 9.981E+008 2.083E+009 3.333E+008 36
element elasticBeamColumn 37 18 19 1.000E+005 2.482E+004 1.034E+004 9.981E+008 2.083E+009 3.333E+008 37
element elasticBeamColumn 38 22 23 1.000E+005 2.482E+004 1.034E+004 9.981E+008 2.083E+009 3.333E+008 38
element elasticBeamColumn 39 17 20 1.000E+005 2.482E+004 1.034E+004 9.981E+008 2.083E+009 3.333E+008 39
element elasticBeamColumn 40 21 24 1.000E+005 2.482E+004 1.034E+004 9.981E+008 2.083E+009 3.333E+008 40
element elasticBeamColumn 41 20 19 1.000E+005 2.482E+004 1.034E+004 9.981E+008 2.083E+009 3.333E+008 41
element elasticBeamColumn 42 21 22 1.000E+005 2.482E+004 1.034E+004 9.981E+008 2.083E+009 3.333E+008 42
element elasticBeamColumn 43 25 17 4.000E+004 2.482E+004 1.034E+004 2.253E+008 1.333E+008 1.333E+008 43
element elasticBeamColumn 44 26 18 4.000E+004 2.482E+004 1.034E+004 2.253E+008 1.333E+008 1.333E+008 44
element elasticBeamColumn 45 27 19 4.000E+004 2.482E+004 1.034E+004 2.253E+008 1.333E+008 1.333E+008 45
element elasticBeamColumn 46 28 20 4.000E+004 2.482E+004 1.034E+004 2.253E+008 1.333E+008 1.333E+008 46
element elasticBeamColumn 47 29 21 4.000E+004 2.482E+004 1.034E+004 2.253E+008 1.333E+008 1.333E+008 47
element elasticBeamColumn 48 30 22 4.000E+004 2.482E+004 1.034E+004 2.253E+008 1.333E+008 1.333E+008 48
element elasticBeamColumn 49 31 23 4.000E+004 2.482E+004 1.034E+004 2.253E+008 1.333E+008 1.333E+008 49
element elasticBeamColumn 50 32 24 4.000E+004 2.482E+004 1.034E+004 2.253E+008 1.333E+008 1.333E+008 50
element truss 51 19 22 4.265E+003 1
element truss 52 20 21 4.265E+003 1
puts "recorder"
recorder Node -file node0.out -time -nodeRange 1 32 -dof 1 2 3 disp
recorder Node -file node1.out -time -node 1 -dof 1 2 3 disp
recorder Node -file node13.out -time -node 13 -dof 1 2 3 disp
recorder Node -file node12.out -time -node 12 -dof 1 2 3 disp
recorder Element -file ele33axialForce.out -time -ele 33 axialForce
recorder Element -file ele33deformation.out -time -ele 33 deformation 
puts "loading"
## Load Case = PUSH
pattern Plain 1 Linear {
load 1 1.000E+003 0.000E+000 0.000E+000 0.000E+000 0.000E+000 0.000E+000
load 2 1.000E+003 0.000E+000 0.000E+000 0.000E+000 0.000E+000 0.000E+000
load 5 1.000E+003 0.000E+000 0.000E+000 0.000E+000 0.000E+000 0.000E+000
load 6 1.000E+003 0.000E+000 0.000E+000 0.000E+000 0.000E+000 0.000E+000
load 9 1.000E+003 0.000E+000 0.000E+000 0.000E+000 0.000E+000 0.000E+000
load 10 1.000E+003 0.000E+000 0.000E+000 0.000E+000 0.000E+000 0.000E+000
load 17 1.000E+003 0.000E+000 0.000E+000 0.000E+000 0.000E+000 0.000E+000
load 18 1.000E+003 0.000E+000 0.000E+000 0.000E+000 0.000E+000 0.000E+000
}
puts "analysis"
constraints Plain
numberer Plain
system BandGeneral
test EnergyIncr 1.0e-6 200
algorithm Newton
integrator DisplacementControl 1 1 3
analysis Static
analyze 100
