File C:\Users\dino\Desktop\sap2000\model1.$2k was saved on 5/6/14 at 15:59:00
 
TABLE:  "ACTIVE DEGREES OF FREEDOM"
   UX=Yes   UY=Yes   UZ=Yes   RX=No   RY=No   RZ=No
 
TABLE:  "ANALYSIS OPTIONS"
   Solver=Advanced   SolverProc=Auto   Force32Bit=No   StiffCase=None   GeomMod=No
 
TABLE:  "AREA SECTION PROPERTIES"
   Section=ASEC1   Material=A992Fy50   MatAngle=0   AreaType=Shell   Type=Shell-Thin   DrillDOF=Yes   Thickness=250   BendThick=250   Color=Cyan   F11Mod=1   F22Mod=1   F12Mod=1   M11Mod=1   M22Mod=1   M12Mod=1   V13Mod=1   V23Mod=1 _
        MMod=1   WMod=1   Notes="Added 2014/5/6 14:53:48"
 
TABLE:  "AREA SECTION PROPERTY DESIGN PARAMETERS"
   Section=ASEC1   RebarMat=None   RebarOpt=Default
 
TABLE:  "AUTO WAVE 3 - WAVE CHARACTERISTICS - GENERAL"
   WaveChar=Default   WaveType="From Theory"   KinFactor=1   SWaterDepth=45000   WaveHeight=18000   WavePeriod=12   WaveTheory=Linear
 
TABLE:  "BRIDGE DESIGN PREFERENCES - AASHTOLRFD07"
   HingeOpt="Auto: AASHTO/Caltrans Hinge"
 
TABLE:  "BRIDGE PREFERENCES"
   NorthAngle=90   MaxDiscCurv=1
 
TABLE:  "CASE - MODAL 1 - GENERAL"
   Case=MODAL   ModeType=Eigen   MaxNumModes=12   MinNumModes=1   EigenShift=0   EigenCutoff=0   EigenTol=.000000001   AutoShift=Yes
 
TABLE:  "CASE - STATIC 1 - LOAD ASSIGNMENTS"
   Case=DEAD   LoadType="Load pattern"   LoadName=DEAD   LoadSF=1
 
TABLE:  "CONNECTIVITY - SOLID"
   Solid=1   Joint1=208   Joint2=209   Joint3=210   Joint4=211   Joint5=27   Joint6=28   Joint7=3   Joint8=10
   Solid=2   Joint1=27   Joint2=28   Joint3=3   Joint4=10   Joint5=212   Joint6=213   Joint7=214   Joint8=215
   Solid=3   Joint1=209   Joint2=216   Joint3=211   Joint4=217   Joint5=28   Joint6=29   Joint7=10   Joint8=11
   Solid=4   Joint1=28   Joint2=29   Joint3=10   Joint4=11   Joint5=213   Joint6=218   Joint7=215   Joint8=219
   Solid=5   Joint1=216   Joint2=220   Joint3=217   Joint4=221   Joint5=29   Joint6=30   Joint7=11   Joint8=12
   Solid=6   Joint1=29   Joint2=30   Joint3=11   Joint4=12   Joint5=218   Joint6=222   Joint7=219   Joint8=223
   Solid=7   Joint1=220   Joint2=224   Joint3=221   Joint4=225   Joint5=30   Joint6=31   Joint7=12   Joint8=13
   Solid=8   Joint1=30   Joint2=31   Joint3=12   Joint4=13   Joint5=222   Joint6=226   Joint7=223   Joint8=227
   Solid=9   Joint1=224   Joint2=228   Joint3=225   Joint4=229   Joint5=31   Joint6=32   Joint7=13   Joint8=14
   Solid=10   Joint1=31   Joint2=32   Joint3=13   Joint4=14   Joint5=226   Joint6=230   Joint7=227   Joint8=231
   Solid=11   Joint1=228   Joint2=232   Joint3=229   Joint4=233   Joint5=32   Joint6=33   Joint7=14   Joint8=15
   Solid=12   Joint1=32   Joint2=33   Joint3=14   Joint4=15   Joint5=230   Joint6=234   Joint7=231   Joint8=235
   Solid=13   Joint1=232   Joint2=236   Joint3=233   Joint4=237   Joint5=33   Joint6=34   Joint7=15   Joint8=16
   Solid=14   Joint1=33   Joint2=34   Joint3=15   Joint4=16   Joint5=234   Joint6=238   Joint7=235   Joint8=239
   Solid=15   Joint1=236   Joint2=240   Joint3=237   Joint4=241   Joint5=34   Joint6=35   Joint7=16   Joint8=17
   Solid=16   Joint1=34   Joint2=35   Joint3=16   Joint4=17   Joint5=238   Joint6=242   Joint7=239   Joint8=243
   Solid=17   Joint1=240   Joint2=244   Joint3=241   Joint4=245   Joint5=35   Joint6=36   Joint7=17   Joint8=18
   Solid=18   Joint1=35   Joint2=36   Joint3=17   Joint4=18   Joint5=242   Joint6=246   Joint7=243   Joint8=247
   Solid=19   Joint1=244   Joint2=248   Joint3=245   Joint4=249   Joint5=36   Joint6=37   Joint7=18   Joint8=19
   Solid=20   Joint1=36   Joint2=37   Joint3=18   Joint4=19   Joint5=246   Joint6=250   Joint7=247   Joint8=251
# ... 228 like lines cut
 
TABLE:  "COORDINATE SYSTEMS"
   Name=GLOBAL   Type=Cartesian   X=0   Y=0   Z=0   AboutZ=0   AboutY=0   AboutX=0
 
TABLE:  "DATABASE DOCUMENTATION"
 
TABLE:  "DATABASE FORMAT TYPES"
   UnitsCurr=Yes   OverrideE=No
 
TABLE:  "FRAME SECTION PROPERTIES 01 - GENERAL"
   SectionName=FSEC1   Material=A992Fy50   Shape="I/Wide Flange"   t3=304.8   t2=127   tf=9.652   tw=6.35   t2b=127   tfb=9.652   Area=4264.5076   TorsConst=96511.7678053953   I33=65724174.702235   I22=3301257.17301008   AS2=1935.48 _
        AS3=2043.00666666667   S33=431260.98885981   S22=51988.3019371667   Z33=491187.4950424   Z22=80716.532115   R33=124.144683132414   R22=27.8230817990979   Color=Magenta   FromFile=No   AMod=1   A2Mod=1   A3Mod=1   JMod=1   I2Mod=1 _
        I3Mod=1   MMod=1   WMod=1   Notes="Added 2014/5/6 14:53:49"
 
TABLE:  "FUNCTION - PLOT FUNCTIONS"
   PlotFunc="Input Energy"   Type=Energy   Component=Input   Mode=All
 
TABLE:  "FUNCTION - POWER SPECTRAL DENSITY - USER"
   Name=UNIFPSD   Frequency=0   Value=1
   Name=UNIFPSD   Frequency=1   Value=1
 
TABLE:  "FUNCTION - RESPONSE SPECTRUM - USER"
   Name=UNIFRS   Period=0   Accel=1   FuncDamp=.05
   Name=UNIFRS   Period=1   Accel=1
 
TABLE:  "FUNCTION - STEADY STATE - USER"
   Name=UNIFSS   Frequency=0   Value=1
   Name=UNIFSS   Frequency=1   Value=1
 
TABLE:  "FUNCTION - TIME HISTORY - USER"
   Name=RAMPTH   Time=0   Value=0
   Name=RAMPTH   Time=1   Value=1
   Name=RAMPTH   Time=4   Value=1
   Name=UNIFTH   Time=0   Value=1
   Name=UNIFTH   Time=1   Value=1
 
TABLE:  "GRID LINES"
   CoordSys=GLOBAL   AxisDir=X   GridID=A   XRYZCoord=0   LineType=Primary   LineColor=Gray8Dark   Visible=Yes   BubbleLoc=End   AllVisible=Yes   BubbleSize=50
   CoordSys=GLOBAL   AxisDir=X   GridID=B   XRYZCoord=800   LineType=Primary   LineColor=Gray8Dark   Visible=Yes   BubbleLoc=End
   CoordSys=GLOBAL   AxisDir=X   GridID=C   XRYZCoord=1050   LineType=Primary   LineColor=Gray8Dark   Visible=Yes   BubbleLoc=End
   CoordSys=GLOBAL   AxisDir=Y   GridID=1   XRYZCoord=0   LineType=Primary   LineColor=Gray8Dark   Visible=Yes   BubbleLoc=Start
   CoordSys=GLOBAL   AxisDir=Z   GridID=Z1   XRYZCoord=0   LineType=Primary   LineColor=Gray8Dark   Visible=Yes   BubbleLoc=End
   CoordSys=GLOBAL   AxisDir=Z   GridID=Z2   XRYZCoord=500   LineType=Primary   LineColor=Gray8Dark   Visible=Yes   BubbleLoc=End
 
TABLE:  "GROUPS 1 - DEFINITIONS"
   GroupName=ALL   Selection=Yes   SectionCut=Yes   Steel=Yes   Concrete=Yes   Aluminum=Yes   ColdFormed=Yes   Stage=Yes   Bridge=Yes   AutoSeismic=No   AutoWind=No   SelDesSteel=No   SelDesAlum=No   SelDesCold=No   MassWeight=Yes   Color=Red
 
TABLE:  "JOINT COORDINATES"
   Joint=1   CoordSys=GLOBAL   CoordType=Cartesian   XorR=0   Y=0   Z=0   SpecialJt=No
   Joint=2   CoordSys=GLOBAL   CoordType=Cartesian   XorR=800   Y=0   Z=0   SpecialJt=No
   Joint=3   CoordSys=GLOBAL   CoordType=Cartesian   XorR=800   Y=0   Z=500   SpecialJt=No
   Joint=4   CoordSys=GLOBAL   CoordType=Cartesian   XorR=0   Y=0   Z=500   SpecialJt=No
   Joint=10   CoordSys=GLOBAL   CoordType=Cartesian   XorR=864.70476127563   Y=0   Z=491.481456572267   SpecialJt=No
   Joint=11   CoordSys=GLOBAL   CoordType=Cartesian   XorR=925   Y=0   Z=466.50635094611   SpecialJt=No
   Joint=12   CoordSys=GLOBAL   CoordType=Cartesian   XorR=976.776695296637   Y=0   Z=426.776695296637   SpecialJt=No
   Joint=13   CoordSys=GLOBAL   CoordType=Cartesian   XorR=1016.50635094611   Y=0   Z=375   SpecialJt=No
   Joint=14   CoordSys=GLOBAL   CoordType=Cartesian   XorR=1041.48145657227   Y=0   Z=314.70476127563   SpecialJt=No
   Joint=15   CoordSys=GLOBAL   CoordType=Cartesian   XorR=1050   Y=0   Z=250   SpecialJt=No
   Joint=16   CoordSys=GLOBAL   CoordType=Cartesian   XorR=1041.48145657227   Y=0   Z=185.29523872437   SpecialJt=No
   Joint=17   CoordSys=GLOBAL   CoordType=Cartesian   XorR=1016.50635094611   Y=0   Z=125   SpecialJt=No
   Joint=18   CoordSys=GLOBAL   CoordType=Cartesian   XorR=976.776695296637   Y=0   Z=73.2233047033631   SpecialJt=No
   Joint=19   CoordSys=GLOBAL   CoordType=Cartesian   XorR=925   Y=0   Z=33.4936490538903   SpecialJt=No
   Joint=20   CoordSys=GLOBAL   CoordType=Cartesian   XorR=864.70476127563   Y=0   Z=8.51854342773292   SpecialJt=No
   Joint=27   CoordSys=GLOBAL   CoordType=Cartesian   XorR=800   Y=0   Z=400   SpecialJt=Yes
   Joint=28   CoordSys=GLOBAL   CoordType=Cartesian   XorR=838.822856765378   Y=0   Z=394.88887394336   SpecialJt=No
   Joint=29   CoordSys=GLOBAL   CoordType=Cartesian   XorR=875   Y=0   Z=379.903810567666   SpecialJt=No
   Joint=30   CoordSys=GLOBAL   CoordType=Cartesian   XorR=906.066017177982   Y=0   Z=356.066017177982   SpecialJt=No
   Joint=31   CoordSys=GLOBAL   CoordType=Cartesian   XorR=929.903810567666   Y=0   Z=325   SpecialJt=No
   Joint=32   CoordSys=GLOBAL   CoordType=Cartesian   XorR=944.88887394336   Y=0   Z=288.822856765378   SpecialJt=No
   Joint=33   CoordSys=GLOBAL   CoordType=Cartesian   XorR=950   Y=0   Z=250   SpecialJt=No
   Joint=34   CoordSys=GLOBAL   CoordType=Cartesian   XorR=944.88887394336   Y=0   Z=211.177143234622   SpecialJt=No
   Joint=35   CoordSys=GLOBAL   CoordType=Cartesian   XorR=929.903810567666   Y=0   Z=175   SpecialJt=No
   Joint=36   CoordSys=GLOBAL   CoordType=Cartesian   XorR=906.066017177982   Y=0   Z=143.933982822018   SpecialJt=No
   Joint=37   CoordSys=GLOBAL   CoordType=Cartesian   XorR=875   Y=0   Z=120.096189432334   SpecialJt=No
   Joint=38   CoordSys=GLOBAL   CoordType=Cartesian   XorR=838.822856765378   Y=0   Z=105.11112605664   SpecialJt=No
   Joint=39   CoordSys=GLOBAL   CoordType=Cartesian   XorR=800   Y=0   Z=100   SpecialJt=No
   Joint=43   CoordSys=GLOBAL   CoordType=Cartesian   XorR=761.177143234622   Y=0   Z=394.88887394336   SpecialJt=No
   Joint=44   CoordSys=GLOBAL   CoordType=Cartesian   XorR=725   Y=0   Z=379.903810567666   SpecialJt=No
   Joint=45   CoordSys=GLOBAL   CoordType=Cartesian   XorR=693.933982822018   Y=0   Z=356.066017177982   SpecialJt=No
   Joint=46   CoordSys=GLOBAL   CoordType=Cartesian   XorR=670.096189432334   Y=0   Z=325   SpecialJt=No
   Joint=47   CoordSys=GLOBAL   CoordType=Cartesian   XorR=655.11112605664   Y=0   Z=288.822856765378   SpecialJt=No
   Joint=48   CoordSys=GLOBAL   CoordType=Cartesian   XorR=650   Y=0   Z=250   SpecialJt=No
   Joint=49   CoordSys=GLOBAL   CoordType=Cartesian   XorR=655.11112605664   Y=0   Z=211.177143234622   SpecialJt=No
   Joint=50   CoordSys=GLOBAL   CoordType=Cartesian   XorR=670.096189432334   Y=0   Z=175   SpecialJt=No
# ... 444 like lines cut
 
TABLE:  "JOINT LOADS - FORCE"
   Joint=39   LoadPat=DEAD   CoordSys=GLOBAL   F1=0   F2=0   F3=-100000   M1=0   M2=0   M3=0
   Joint=256   LoadPat=DEAD   CoordSys=GLOBAL   F1=0   F2=0   F3=-100000   M1=0   M2=0   M3=0
   Joint=258   LoadPat=DEAD   CoordSys=GLOBAL   F1=0   F2=0   F3=-100000   M1=0   M2=0   M3=0
 
TABLE:  "JOINT LOCAL AXES ASSIGNMENTS 1 - TYPICAL"
   Joint=19   AngleA=15   AngleB=0   AngleC=0
   Joint=20   AngleA=30   AngleB=0   AngleC=0
 
TABLE:  "JOINT LOCAL AXES ASSIGNMENTS 2 - ADVANCED"
   Joint=19   LocalPlane=31   AxOption1="Coord Dir"   AxCoordSys=GLOBAL   AxCoordDir=Z   AxVecJt1=None   AxVecJt2=None   PlOption1="Coord Dir"   PlCoordSys=GLOBAL   CoordDir1=X   CoordDir2=Y   PlVecJt1=None   PlVecJt2=None   AxVecX=0 _
        AxVecY=0   AxVecZ=1   PlVecX=1   PlVecY=0   PlVecZ=0
   Joint=20   LocalPlane=31   AxOption1="Coord Dir"   AxCoordSys=GLOBAL   AxCoordDir=Z   AxVecJt1=None   AxVecJt2=None   PlOption1="Coord Dir"   PlCoordSys=GLOBAL   CoordDir1=X   CoordDir2=Y   PlVecJt1=None   PlVecJt2=None   AxVecX=0 _
        AxVecY=0   AxVecZ=1   PlVecX=1   PlVecY=0   PlVecZ=0
 
TABLE:  "JOINT PATTERN DEFINITIONS"
   Pattern=Default
 
TABLE:  "JOINT RESTRAINT ASSIGNMENTS"
   Joint=1   U1=Yes   U2=Yes   U3=Yes   R1=Yes   R2=Yes   R3=Yes
   Joint=4   U1=Yes   U2=Yes   U3=Yes   R1=Yes   R2=Yes   R3=Yes
   Joint=121   U1=Yes   U2=Yes   U3=Yes   R1=Yes   R2=Yes   R3=Yes
   Joint=122   U1=Yes   U2=Yes   U3=Yes   R1=Yes   R2=Yes   R3=Yes
   Joint=123   U1=Yes   U2=Yes   U3=Yes   R1=Yes   R2=Yes   R3=Yes
   Joint=124   U1=Yes   U2=Yes   U3=Yes   R1=Yes   R2=Yes   R3=Yes
   Joint=125   U1=Yes   U2=Yes   U3=Yes   R1=Yes   R2=Yes   R3=Yes
   Joint=126   U1=Yes   U2=Yes   U3=Yes   R1=Yes   R2=Yes   R3=Yes
   Joint=127   U1=Yes   U2=Yes   U3=Yes   R1=Yes   R2=Yes   R3=Yes
   Joint=312   U1=Yes   U2=Yes   U3=Yes   R1=Yes   R2=Yes   R3=Yes
   Joint=314   U1=Yes   U2=Yes   U3=Yes   R1=Yes   R2=Yes   R3=Yes
   Joint=316   U1=Yes   U2=Yes   U3=Yes   R1=Yes   R2=Yes   R3=Yes
   Joint=318   U1=Yes   U2=Yes   U3=Yes   R1=Yes   R2=Yes   R3=Yes
   Joint=320   U1=Yes   U2=Yes   U3=Yes   R1=Yes   R2=Yes   R3=Yes
   Joint=322   U1=Yes   U2=Yes   U3=Yes   R1=Yes   R2=Yes   R3=Yes
   Joint=324   U1=Yes   U2=Yes   U3=Yes   R1=Yes   R2=Yes   R3=Yes
   Joint=326   U1=Yes   U2=Yes   U3=Yes   R1=Yes   R2=Yes   R3=Yes
   Joint=328   U1=Yes   U2=Yes   U3=Yes   R1=Yes   R2=Yes   R3=Yes
   Joint=330   U1=Yes   U2=Yes   U3=Yes   R1=Yes   R2=Yes   R3=Yes
   Joint=332   U1=Yes   U2=Yes   U3=Yes   R1=Yes   R2=Yes   R3=Yes
# ... 7 like lines cut
 
TABLE:  "LOAD CASE DEFINITIONS"
   Case=DEAD   Type=LinStatic   InitialCond=Zero   DesTypeOpt="Prog Det"   DesignType=DEAD   AutoType=None   RunCase=Yes
   Case=MODAL   Type=LinModal   InitialCond=Zero   DesTypeOpt="Prog Det"   DesignType=OTHER   AutoType=None   RunCase=Yes
 
TABLE:  "LOAD PATTERN DEFINITIONS"
   LoadPat=DEAD   DesignType=DEAD   SelfWtMult=0
 
TABLE:  "MASSES 1 - MASS SOURCE"
   MassFrom=Elements
 
TABLE:  "MATERIAL PROPERTIES 01 - GENERAL"
   Material=4000Psi   Type=Concrete   SymType=Isotropic   TempDepend=No   Color=Yellow   Notes="Normalweight f'c = 4 ksi added 2014/5/6 14:52:54"
   Material=A992Fy50   Type=Steel   SymType=Isotropic   TempDepend=No   Color=Magenta   Notes="ASTM A992 Fy=50 ksi added 2014/5/6 14:52:54"
   Material=STEEL   Type=Steel   SymType=Isotropic   TempDepend=No   Color=Blue   Notes="ASTM A36 added 2014/5/6 15:11:08"
 
TABLE:  "MATERIAL PROPERTIES 02 - BASIC MECHANICAL PROPERTIES"
   Material=4000Psi   UnitWeight=2.3563121614979E-05   UnitMass=2.40276960611018E-09   E1=24855.5782847654   G12=10356.4909519856   U12=.2   A1=.0000099
   Material=A992Fy50   UnitWeight=7.69728639422648E-05   UnitMass=7.84904737995992E-09   E1=199947.978795958   G12=76903.068767676   U12=.3   A1=.0000117
   Material=STEEL   UnitWeight=7.69728639422648E-05   UnitMass=7.84904737995992E-09   E1=205000   G12=78846.1538461538   U12=.3   A1=.0000117
 
TABLE:  "MATERIAL PROPERTIES 03A - STEEL DATA"
   Material=A992Fy50   Fy=344.737894475789   Fu=448.159262818526   EffFy=379.211683923368   EffFu=492.975189100378   SSCurveOpt=Simple   SSHysType=Kinematic   SHard=.015   SMax=.11   SRup=.17   FinalSlope=-.1
   Material=STEEL   Fy=248.211284022568   Fu=399.895957591915   EffFy=372.316926033852   EffFu=439.885553351107   SSCurveOpt=Simple   SSHysType=Kinematic   SHard=.02   SMax=.14   SRup=.2   FinalSlope=-.1
 
TABLE:  "MATERIAL PROPERTIES 03B - CONCRETE DATA"
   Material=4000Psi   Fc=27.5790315580631   LtWtConc=No   SSCurveOpt=Mander   SSHysType=Takeda   SFc=2.21914221766202E-03   SCap=.005   FinalSlope=-.1   FAngle=0   DAngle=0
 
TABLE:  "MATERIAL PROPERTIES 06 - DAMPING PARAMETERS"
   Material=4000Psi   ModalRatio=0   VisMass=0   VisStiff=0   HysMass=0   HysStiff=0
   Material=A992Fy50   ModalRatio=0   VisMass=0   VisStiff=0   HysMass=0   HysStiff=0
   Material=STEEL   ModalRatio=0   VisMass=0   VisStiff=0   HysMass=0   HysStiff=0
 
TABLE:  "OPTIONS - COLORS - DISPLAY"
   DeviceType=Screen   Points=Yellow   LinesFrame=Yellow   LinesFrmExt=Yellow   LinesCable=Green   LinesTendon=Green   SpringLinks=Green   Restraints=Green   Releases=Green   Axes=Cyan   Text=Green   ShadowLines=Gray8Dark _
        GuideLines=Gray8Dark   Highlight=Red   Selection=White   AreaFillBot=Red   AreaFillTop=16744703   AreaFillSd=Red   AreaEdge=DarkRed   SolidF1=Red   SolidF2=Blue   SolidF3=Green   SolidF4=Yellow   SolidF5=White   SolidF6=Cyan _
        SolidEdge=DarkRed   Floor=Gray4   Background=Black   BGLowLeft=Black   BGLowRight=Black   BGUpRight=Black   Darkness=.5
   DeviceType=Printer   Points=Gray8Dark   LinesFrame=Black   LinesFrmExt=Gray4   LinesCable=Black   LinesTendon=Black   SpringLinks=Gray8Dark   Restraints=Gray8Dark   Releases=Gray4   Axes=Black   Text=Black   ShadowLines=Gray4 _
        GuideLines=Gray4   Highlight=Black   Selection=Black   AreaFillBot=Gray4   AreaFillTop=Gray8Dark   AreaFillSd=Gray4   AreaEdge=Black   SolidF1=Gray1Light   SolidF2=Gray2   SolidF3=Gray3   SolidF4=Gray4   SolidF5=Gray5 _
        SolidF6=Gray6   SolidEdge=Black   Floor=Gray4   Background=White   BGLowLeft=White   BGLowRight=White   BGUpRight=White   Darkness=.5
   DeviceType="Color Printer"   Points=Black   LinesFrame=7303023   LinesFrmExt=White   LinesCable=Green   LinesTendon=Green   SpringLinks=Green   Restraints=9408399   Releases=Green   Axes=Cyan   Text=Black   ShadowLines=Gray8Dark _
        GuideLines=10461087   Highlight=Red   Selection=10504778   AreaFillBot=16634568   AreaFillTop=14277119   AreaFillSd=16634568   AreaEdge=7303023   SolidF1=10122991   SolidF2=16756912   SolidF3=11599795   SolidF4=12713983 _
        SolidF5=White   SolidF6=16777128   SolidEdge=7303023   Floor=13619151   Background=White   BGLowLeft=White   BGLowRight=14671839   BGUpRight=White   Darkness=.5
 
TABLE:  "OPTIONS - COLORS - OUTPUT"
   DeviceType=Screen   Contour1=13107400   Contour2=6553828   Contour3=Red   Contour4=16639   Contour5=Orange   Contour6=43775   Contour7=54527   Contour8=Yellow   Contour9=65408   Contour10=Green   Contour11=8453888   Contour12=Cyan _
        Contour13=16755200   Contour14=16733440   Contour15=Blue   Transpare=.5   Ratio1=Cyan   Ratio2=Green   Ratio3=Yellow   Ratio4=Orange   Ratio5=Red   RatioNotD=Gray4   RatioNotC=Red   RatioVal1=.5   RatioVal2=.7   RatioVal3=.9 _
        RatioVal4=1   DFillPos=Yellow   DFillNeg=Red   DFillRPos=Blue   DFillRNeg=Cyan
   DeviceType=Printer   Contour1=Black   Contour2=3158064   Contour3=4210752   Contour4=5263440   Contour5=6316128   Contour6=7368816   Contour7=Gray8Dark   Contour8=Gray7   Contour9=Gray6   Contour10=Gray5   Contour11=Gray4 _
        Contour12=Gray3   Contour13=Gray2   Contour14=Gray1Light   Contour15=White   Transpare=0   Ratio1=Gray2   Ratio2=Gray4   Ratio3=Gray8Dark   Ratio4=4210752   Ratio5=Black   RatioNotD=Gray4   RatioNotC=Black   RatioVal1=.5 _
        RatioVal2=.7   RatioVal3=.9   RatioVal4=1   DFillPos=Gray8Dark   DFillNeg=Gray8Dark   DFillRPos=4210752   DFillRNeg=4210752
   DeviceType="Color Printer"   Contour1=13107400   Contour2=6553828   Contour3=Red   Contour4=16639   Contour5=Orange   Contour6=43775   Contour7=54527   Contour8=Yellow   Contour9=65408   Contour10=Green   Contour11=8453888 _
        Contour12=Cyan   Contour13=16755200   Contour14=16733440   Contour15=Blue   Transpare=.5   Ratio1=Cyan   Ratio2=Green   Ratio3=Yellow   Ratio4=Orange   Ratio5=Red   RatioNotD=Gray4   RatioNotC=Red   RatioVal1=.5   RatioVal2=.7 _
        RatioVal3=.9   RatioVal4=1   DFillPos=Red   DFillNeg=Red   DFillRPos=Blue   DFillRNeg=Blue
 
TABLE:  "PREFERENCES - ALUMINUM DESIGN - AA-ASD 2000"
   THDesign=Envelopes   FrameType="Moment Frame"   SRatioLimit=1   MaxIter=1   LatFact=1.33333333333333   UseLatFact=No   Bridge=No
 
TABLE:  "PREFERENCES - COLD FORMED DESIGN - AISI-ASD96"
   THDesign=Envelopes   FrameType="Braced Frame"   SRatioLimit=1   MaxIter=1   OmegaBS=1.67   OmegaBUS=1.67   OmegaBLTB=1.67   OmegaVS=1.67   OmegaVNS=1.5   OmegaT=1.67   OmegaC=1.8
 
TABLE:  "PREFERENCES - CONCRETE DESIGN - ACI 318-05/IBC2003"
   THDesign=Envelopes   NumCurves=24   NumPoints=11   MinEccen=No   PatLLF=.75   UFLimit=.95   SeisCat=D   PhiT=.9   PhiCTied=.65   PhiCSpiral=.7   PhiV=.75   PhiVSeismic=.6   PhiVJoint=.85
 
TABLE:  "PREFERENCES - DIMENSIONAL"
   MergeTol=1   FineGrid=250   Nudge=250   SelectTol=3   SnapTol=12   SLineThick=1   PLineThick=4   MaxFont=8   MinFont=3   AutoZoom=10   ShrinkFact=70   TextFileLen=240
 
TABLE:  "PREFERENCES - STEEL DESIGN - AISC-LRFD93"
   THDesign=Envelopes   FrameType="Moment Frame"   PatLLF=.75   SRatioLimit=.95   MaxIter=1   PhiB=.9   PhiC=.85   PhiT=.9   PhiV=.9   PhiCA=.9   CheckDefl=Yes   DLRat=120   SDLAndLLRat=120   LLRat=360   TotalRat=240   NetRat=240
 
TABLE:  "PROGRAM CONTROL"
   ProgramName=SAP2000   Version=14.0.0   CurrUnits="N, mm, C"   SteelCode=AISC-LRFD93   ConcCode="ACI 318-05/IBC2003"   AlumCode="AA-ASD 2000"   ColdCode=AISI-ASD96   BridgeCode="AASHTO LRFD 2007"   RegenHinge=Yes
 
TABLE:  "PROJECT INFORMATION"
   Item="Company Name"
   Item="Client Name"
   Item="Project Name"
   Item="Project Number"
   Item="Model Name"
   Item="Model Description"
   Item="Revision Number"
   Item="Frame Type"
   Item=Engineer
   Item=Checker
   Item=Supervisor
   Item="Issue Code"
   Item="Design Code"
 
TABLE:  "REBAR SIZES"
   RebarID=#2   Area=32.258   Diameter=6.35
   RebarID=#3   Area=70.9675996154547   Diameter=9.525
   RebarID=#4   Area=129.032001922727   Diameter=12.7
   RebarID=#5   Area=199.999601538181   Diameter=15.875
   RebarID=#6   Area=283.870398461819   Diameter=19.05
   RebarID=#7   Area=387.096015381813   Diameter=22.225
   RebarID=#8   Area=509.676413843632   Diameter=25.4
   RebarID=#9   Area=645.16   Diameter=28.6512005329132
   RebarID=#10   Area=819.35318769455   Diameter=32.2579995155334
   RebarID=#11   Area=1006.44956308365   Diameter=35.8139991521835
   RebarID=#14   Area=1451.61   Diameter=43.0021989583969
   RebarID=#18   Area=2580.64   Diameter=57.3277992248535
   RebarID=10M   Area=100.000004162606   Diameter=11.3000003604438
   RebarID=15M   Area=200.000008325212   Diameter=16.0000002402959
   RebarID=20M   Area=300.000012487818   Diameter=19.5000002928606
   RebarID=25M   Area=500.000020813031   Diameter=25.2000011414055
   RebarID=30M   Area=700.000029138243   Diameter=29.9000000675832
   RebarID=35M   Area=1000.00004162606   Diameter=35.7000012990997
   RebarID=45M   Area=1500.00006243909   Diameter=43.7000014192476
   RebarID=55M   Area=2500.00010406515   Diameter=56.400002372922
   RebarID=6d   Area=28.3000004150781   Diameter=6.00000009011096
   RebarID=8d   Area=50.3000013308514   Diameter=8.00000012014795
   RebarID=10d   Area=78.5000032676458   Diameter=10.0000001501849
   RebarID=12d   Area=113.000004703745   Diameter=12.0000001802219
   RebarID=14d   Area=154.000006410413   Diameter=14.0000002102589
   RebarID=16d   Area=201.000008366838   Diameter=16.0000002402959
   RebarID=20d   Area=314.000013070583   Diameter=20.0000003003699
   RebarID=25d   Area=491.000020438396   Diameter=25.0000003754623
   RebarID=26d   Area=531.000022103439   Diameter=26.0000003904808
   RebarID=28d   Area=616.000025641654   Diameter=28.0000004205178
   RebarID=N12   Area=113.000004703745   Diameter=12.0000001802219
   RebarID=N16   Area=201.000008366838   Diameter=16.0000002402959
   RebarID=N20   Area=314.000013070583   Diameter=20.0000003003699
   RebarID=N24   Area=452.00001881498   Diameter=24.0000003604438
   RebarID=N28   Area=616.000025641654   Diameter=28.0000004205178
   RebarID=N32   Area=804.000033467353   Diameter=32.0000004805918
   RebarID=N36   Area=1020.00004245858   Diameter=36.0000005406658
 
TABLE:  "SOLID PROPERTY ASSIGNMENTS"
   Solid=1   SolidProp=SOLID1
   Solid=2   SolidProp=SOLID1
   Solid=3   SolidProp=SOLID1
   Solid=4   SolidProp=SOLID1
   Solid=5   SolidProp=SOLID1
   Solid=6   SolidProp=SOLID1
   Solid=7   SolidProp=SOLID1
   Solid=8   SolidProp=SOLID1
   Solid=9   SolidProp=SOLID1
   Solid=10   SolidProp=SOLID1
   Solid=11   SolidProp=SOLID1
   Solid=12   SolidProp=SOLID1
   Solid=13   SolidProp=SOLID1
   Solid=14   SolidProp=SOLID1
   Solid=15   SolidProp=SOLID1
   Solid=16   SolidProp=SOLID1
   Solid=17   SolidProp=SOLID1
   Solid=18   SolidProp=SOLID1
   Solid=19   SolidProp=SOLID1
   Solid=20   SolidProp=SOLID1
# ... 228 like lines cut
 
TABLE:  "SOLID PROPERTY DEFINITIONS"
   SolidProp=SOLID1   Material=STEEL   MatAngleA=0   MatAngleB=0   MatAngleC=0   InComp=Yes   Color=Yellow   Notes="Added 2014/5/6 15:05:39"
 
END TABLE DATA
