wipe
puts "System"
model basic -ndm 3 -ndf 6
puts "restraint"
node 1 0.000E+000 0.000E+000 0.000E+000
node 2 1.250E+005 0.000E+000 0.000E+000
node 3 0.000E+000 2.400E+004 0.000E+000
node 4 1.250E+005 2.400E+004 0.000E+000
node 5 3.000E+003 0.000E+000 8.000E+003
node 6 3.000E+003 6.000E+003 8.000E+003
node 7 3.000E+003 1.200E+004 8.000E+003
node 8 3.000E+003 1.800E+004 8.000E+003
node 9 3.000E+003 2.400E+004 8.000E+003
node 10 8.100E+003 0.000E+000 8.000E+003
node 11 8.100E+003 6.000E+003 8.000E+003
node 12 8.100E+003 1.200E+004 8.000E+003
node 13 8.100E+003 1.800E+004 8.000E+003
node 14 8.100E+003 2.400E+004 8.000E+003
node 15 1.490E+004 0.000E+000 8.000E+003
node 16 1.490E+004 6.000E+003 8.000E+003
node 17 1.490E+004 1.200E+004 8.000E+003
node 18 1.490E+004 1.800E+004 8.000E+003
node 19 1.490E+004 2.400E+004 8.000E+003
node 20 2.170E+004 0.000E+000 8.000E+003
# ... 221 like lines cut
puts "rigidDiaphragm"
puts "mass"
mass 1 1.136E+002 1.136E+002 0.000E+000 0.000E+000 0.000E+000 0.000E+000
mass 2 1.136E+002 1.136E+002 0.000E+000 0.000E+000 0.000E+000 0.000E+000
mass 3 1.136E+002 1.136E+002 0.000E+000 0.000E+000 0.000E+000 0.000E+000
mass 4 1.136E+002 1.136E+002 0.000E+000 0.000E+000 0.000E+000 0.000E+000
mass 5 1.612E+001 1.612E+001 0.000E+000 0.000E+000 0.000E+000 0.000E+000
mass 6 2.721E+001 2.721E+001 0.000E+000 0.000E+000 0.000E+000 0.000E+000
mass 7 2.721E+001 2.721E+001 0.000E+000 0.000E+000 0.000E+000 0.000E+000
mass 8 2.721E+001 2.721E+001 0.000E+000 0.000E+000 0.000E+000 0.000E+000
mass 9 1.612E+001 1.612E+001 0.000E+000 0.000E+000 0.000E+000 0.000E+000
mass 10 1.829E+001 1.829E+001 0.000E+000 0.000E+000 0.000E+000 0.000E+000
mass 11 2.938E+001 2.938E+001 0.000E+000 0.000E+000 0.000E+000 0.000E+000
mass 12 2.938E+001 2.938E+001 0.000E+000 0.000E+000 0.000E+000 0.000E+000
mass 13 2.938E+001 2.938E+001 0.000E+000 0.000E+000 0.000E+000 0.000E+000
mass 14 1.829E+001 1.829E+001 0.000E+000 0.000E+000 0.000E+000 0.000E+000
mass 15 1.933E+001 1.933E+001 0.000E+000 0.000E+000 0.000E+000 0.000E+000
mass 16 3.042E+001 3.042E+001 0.000E+000 0.000E+000 0.000E+000 0.000E+000
mass 17 3.042E+001 3.042E+001 0.000E+000 0.000E+000 0.000E+000 0.000E+000
mass 18 3.042E+001 3.042E+001 0.000E+000 0.000E+000 0.000E+000 0.000E+000
mass 19 1.933E+001 1.933E+001 0.000E+000 0.000E+000 0.000E+000 0.000E+000
mass 20 1.933E+001 1.933E+001 0.000E+000 0.000E+000 0.000E+000 0.000E+000
# ... 221 like lines cut
puts "node"
fix 1 1 1 1 1 1 1;
fix 2 1 1 1 1 1 1;
fix 3 1 1 1 1 1 1;
fix 4 1 1 1 1 1 1;
puts "Equal DOF"
puts "material"
uniaxialMaterial Elastic 1 2.060E+005
uniaxialMaterial Elastic 2 2.600E+004
uniaxialMaterial Elastic 3 1.999E+005
nDMaterial ElasticIsotropic 4 26000 0.2
##SLAB 
nDMaterial PlateFiber 601 4
section PlateFiber 701 601 260.00
puts "transformation"
geomTransf Linear 1 0.000 0.000 1.000 
geomTransf Linear 2 0.000 0.000 1.000 
geomTransf Linear 3 0.000 0.000 1.000 
geomTransf Linear 4 0.000 0.000 1.000 
geomTransf Linear 5 0.000 0.000 1.000 
geomTransf Linear 6 0.000 0.000 1.000 
geomTransf Linear 7 0.000 0.000 1.000 
geomTransf Linear 8 0.000 0.000 1.000 
geomTransf Linear 9 0.000 0.000 1.000 
geomTransf Linear 10 0.000 0.000 1.000 
geomTransf Linear 11 0.000 0.000 1.000 
geomTransf Linear 12 0.000 0.000 1.000 
geomTransf Linear 13 0.000 0.000 1.000 
geomTransf Linear 14 0.000 0.000 1.000 
geomTransf Linear 15 0.000 0.000 1.000 
geomTransf Linear 16 0.000 0.000 1.000 
geomTransf Linear 17 0.000 0.000 1.000 
geomTransf Linear 18 0.000 0.000 1.000 
geomTransf Linear 19 0.000 0.000 1.000 
geomTransf Linear 20 0.000 0.000 1.000 
# ... 347 like lines cut
puts "element"
element elasticBeamColumn 1 5 6 1.500E+006 2.600E+004 1.083E+004 2.935E+011 2.813E+011 1.250E+011 1
element elasticBeamColumn 2 6 7 1.500E+006 2.600E+004 1.083E+004 2.935E+011 2.813E+011 1.250E+011 2
element elasticBeamColumn 3 7 8 1.500E+006 2.600E+004 1.083E+004 2.935E+011 2.813E+011 1.250E+011 3
element elasticBeamColumn 4 8 9 1.500E+006 2.600E+004 1.083E+004 2.935E+011 2.813E+011 1.250E+011 4
element elasticBeamColumn 5 10 11 1.500E+006 2.600E+004 1.083E+004 2.935E+011 2.813E+011 1.250E+011 5
element elasticBeamColumn 6 11 12 1.500E+006 2.600E+004 1.083E+004 2.935E+011 2.813E+011 1.250E+011 6
element elasticBeamColumn 7 12 13 1.500E+006 2.600E+004 1.083E+004 2.935E+011 2.813E+011 1.250E+011 7
element elasticBeamColumn 8 13 14 1.500E+006 2.600E+004 1.083E+004 2.935E+011 2.813E+011 1.250E+011 8
element elasticBeamColumn 9 15 16 1.500E+006 2.600E+004 1.083E+004 2.935E+011 2.813E+011 1.250E+011 9
element elasticBeamColumn 10 16 17 1.500E+006 2.600E+004 1.083E+004 2.935E+011 2.813E+011 1.250E+011 10
element elasticBeamColumn 11 17 18 1.500E+006 2.600E+004 1.083E+004 2.935E+011 2.813E+011 1.250E+011 11
element elasticBeamColumn 12 18 19 1.500E+006 2.600E+004 1.083E+004 2.935E+011 2.813E+011 1.250E+011 12
element elasticBeamColumn 13 20 21 1.500E+006 2.600E+004 1.083E+004 2.935E+011 2.813E+011 1.250E+011 13
element elasticBeamColumn 14 21 22 1.500E+006 2.600E+004 1.083E+004 2.935E+011 2.813E+011 1.250E+011 14
element elasticBeamColumn 15 22 23 1.500E+006 2.600E+004 1.083E+004 2.935E+011 2.813E+011 1.250E+011 15
element elasticBeamColumn 16 23 24 1.500E+006 2.600E+004 1.083E+004 2.935E+011 2.813E+011 1.250E+011 16
element elasticBeamColumn 17 25 26 1.500E+006 2.600E+004 1.083E+004 2.935E+011 2.813E+011 1.250E+011 17
element elasticBeamColumn 18 26 27 1.500E+006 2.600E+004 1.083E+004 2.935E+011 2.813E+011 1.250E+011 18
element elasticBeamColumn 19 27 28 1.500E+006 2.600E+004 1.083E+004 2.935E+011 2.813E+011 1.250E+011 19
element elasticBeamColumn 20 28 29 1.500E+006 2.600E+004 1.083E+004 2.935E+011 2.813E+011 1.250E+011 20
# ... 347 like lines cut
puts "shell element"
element ShellMITC4 368 104 109 108 103 701
element ShellMITC4 369 103 108 107 102 701
element ShellMITC4 370 102 107 106 101 701
element ShellMITC4 371 101 106 105 100 701
element ShellMITC4 372 109 114 113 108 701
element ShellMITC4 373 108 113 112 107 701
element ShellMITC4 374 107 112 111 106 701
element ShellMITC4 375 106 111 110 105 701
element ShellMITC4 376 114 119 118 113 701
element ShellMITC4 377 113 118 117 112 701
element ShellMITC4 378 112 117 116 111 701
element ShellMITC4 379 111 116 115 110 701
element ShellMITC4 380 119 124 123 118 701
element ShellMITC4 381 118 123 122 117 701
element ShellMITC4 382 117 122 121 116 701
element ShellMITC4 383 116 121 120 115 701
element ShellMITC4 384 124 129 128 123 701
element ShellMITC4 385 123 128 127 122 701
element ShellMITC4 386 122 127 126 121 701
element ShellMITC4 387 121 126 125 120 701
# ... 52 like lines cut
puts "recorder"
recorder Node -file node0.out -time -nodeRange 1 100 -dof 1 2 3 disp
recorder Node -file node1.out -time -nodeRange 101 200 -dof 1 2 3 disp
recorder Node -file node2.out -time -nodeRange 201 241 -dof 1 2 3 disp
recorder Node -file node203.out -time -node 203 -dof 1 2 3 disp
recorder Element -file ele330.out -time -ele 330 localForce
 
set xDamp 0.05;
set nEigenI 1;
set nEigenJ 2;
set lambdaN [eigen [expr $nEigenJ]];
set lambdaI [lindex $lambdaN [expr $nEigenI-1]];
set lambdaJ [lindex $lambdaN [expr $nEigenJ-1]];
set omegaI [expr pow($lambdaI,0.5)]; 
set omegaJ [expr pow($lambdaJ,0.5)];
set alphaM [expr $xDamp*(2*$omegaI*$omegaJ)/($omegaI+$omegaJ)]; 
set betaKcurr [expr 2.*$xDamp/($omegaI+$omegaJ)];   
rayleigh $alphaM $betaKcurr 0 0  

puts $alphaM
puts $betaKcurr
  
set iGMfile "DM1X.txt";
set iGMfact "1";  
set dt 0.02;   
set dispSeries1 "Series -dt $dt -filePath $iGMfile -factor  $iGMfact";

set iGMfile "DM1X.txt";
set iGMfact "1";  
set dt 0.02;   
set dispSeries2 "Series -dt $dt -filePath $iGMfile -factor  $iGMfact";

pattern MultiSupport  1   {
    groundMotion 1 Plain -disp $dispSeries1
    imposedMotion 1 1 1
    imposedMotion 3 1 1
}
pattern MultiSupport  2   {
    groundMotion 2 Plain -disp $dispSeries2
    imposedMotion 2 1 2
    imposedMotion 4 1 2
}
  
constraints Transformation; 
numberer Plain;  
system SparseSPD; 
test EnergyIncr 1.0e-4 200; 
algorithm Newton 
integrator Newmark 0.5 0.25 
analysis Transient
analyze 1000 0.02
