wipe
puts "System"
model basic -ndm 3 -ndf 6
puts "restraint"
node 1 0.000E+000 0.000E+000 0.000E+000
node 2 0.000E+000 0.000E+000 3.000E+003
node 3 0.000E+000 0.000E+000 6.000E+003
node 4 0.000E+000 0.000E+000 9.000E+003
node 5 0.000E+000 0.000E+000 1.200E+004
node 6 6.000E+003 0.000E+000 1.200E+004
node 7 6.000E+003 0.000E+000 0.000E+000
node 8 6.000E+003 0.000E+000 3.000E+003
node 9 6.000E+003 0.000E+000 6.000E+003
node 10 6.000E+003 0.000E+000 9.000E+003
node 11 1.200E+004 0.000E+000 1.200E+004
node 12 1.200E+004 0.000E+000 0.000E+000
node 13 1.200E+004 0.000E+000 3.000E+003
node 14 1.200E+004 0.000E+000 6.000E+003
node 15 1.200E+004 0.000E+000 9.000E+003
node 16 1.800E+004 0.000E+000 1.200E+004
node 17 1.800E+004 0.000E+000 0.000E+000
node 18 1.800E+004 0.000E+000 3.000E+003
node 19 1.800E+004 0.000E+000 6.000E+003
node 20 1.800E+004 0.000E+000 9.000E+003
# ... 60 like lines cut
puts "rigidDiaphragm"
puts "mass"
mass 1 5.876E-001 5.876E-001 0.000E+000 0.000E+000 0.000E+000 0.000E+000
mass 2 2.654E+000 2.654E+000 0.000E+000 0.000E+000 0.000E+000 0.000E+000
mass 3 2.654E+000 2.654E+000 0.000E+000 0.000E+000 0.000E+000 0.000E+000
mass 4 2.654E+000 2.654E+000 0.000E+000 0.000E+000 0.000E+000 0.000E+000
mass 5 2.067E+000 2.067E+000 0.000E+000 0.000E+000 0.000E+000 0.000E+000
mass 6 2.806E+000 2.806E+000 0.000E+000 0.000E+000 0.000E+000 0.000E+000
mass 7 6.891E-001 6.891E-001 0.000E+000 0.000E+000 0.000E+000 0.000E+000
mass 8 3.495E+000 3.495E+000 0.000E+000 0.000E+000 0.000E+000 0.000E+000
mass 9 3.495E+000 3.495E+000 0.000E+000 0.000E+000 0.000E+000 0.000E+000
mass 10 3.495E+000 3.495E+000 0.000E+000 0.000E+000 0.000E+000 0.000E+000
mass 11 2.908E+000 2.908E+000 0.000E+000 0.000E+000 0.000E+000 0.000E+000
mass 12 5.876E-001 5.876E-001 0.000E+000 0.000E+000 0.000E+000 0.000E+000
mass 13 3.495E+000 3.495E+000 0.000E+000 0.000E+000 0.000E+000 0.000E+000
mass 14 3.495E+000 3.495E+000 0.000E+000 0.000E+000 0.000E+000 0.000E+000
mass 15 3.495E+000 3.495E+000 0.000E+000 0.000E+000 0.000E+000 0.000E+000
mass 16 2.067E+000 2.067E+000 0.000E+000 0.000E+000 0.000E+000 0.000E+000
mass 17 5.876E-001 5.876E-001 0.000E+000 0.000E+000 0.000E+000 0.000E+000
mass 18 2.654E+000 2.654E+000 0.000E+000 0.000E+000 0.000E+000 0.000E+000
mass 19 2.654E+000 2.654E+000 0.000E+000 0.000E+000 0.000E+000 0.000E+000
mass 20 2.654E+000 2.654E+000 0.000E+000 0.000E+000 0.000E+000 0.000E+000
# ... 60 like lines cut
puts "node"
fix 1 1 1 1 1 1 1;
fix 7 1 1 1 1 1 1;
fix 12 1 1 1 1 1 1;
fix 17 1 1 1 1 1 1;
fix 21 1 1 1 1 1 1;
fix 27 1 1 1 1 1 1;
fix 32 1 1 1 1 1 1;
fix 37 1 1 1 1 1 1;
puts "Equal DOF"
puts "material"
uniaxialMaterial Elastic 1 1.999E+005
uniaxialMaterial Elastic 2 2.482E+004
##uniaxialMaterial Elastic 3 1.999E+005


uniaxialMaterial Steel01 3 295 206000 0.05


uniaxialMaterial Elastic 201 4.614E+008
uniaxialMaterial Elastic 301 1.794E+009
uniaxialMaterial Elastic 401 9.058E+011
uniaxialMaterial Elastic 202 1.122E+009
uniaxialMaterial Elastic 302 2.243E+009
uniaxialMaterial Elastic 402 1.649E+012
uniaxialMaterial Elastic 203 5.127E+008
uniaxialMaterial Elastic 303 1.025E+009
uniaxialMaterial Elastic 403 2.461E+011

##DH300X300X35X12 
section Fiber 1 {
fiber -1.200E+002 -1.325E+002 2.100E+003 1
fiber -6.000E+001 -1.325E+002 2.100E+003 1
fiber 0.000E+000 -1.325E+002 2.100E+003 1
fiber 6.000E+001 -1.325E+002 2.100E+003 1
fiber 1.200E+002 -1.325E+002 2.100E+003 1
fiber -1.200E+002 1.325E+002 2.100E+003 1
fiber -6.000E+001 1.325E+002 2.100E+003 1
fiber 0.000E+000 1.325E+002 2.100E+003 1
fiber 6.000E+001 1.325E+002 2.100E+003 1
fiber 1.200E+002 1.325E+002 2.100E+003 1
fiber 0.000E+000 -9.200E+001 5.520E+002 1
fiber 0.000E+000 -4.600E+001 5.520E+002 1
fiber 0.000E+000 0.000E+000 5.520E+002 1
fiber 0.000E+000 4.600E+001 5.520E+002 1
fiber 0.000E+000 9.200E+001 5.520E+002 1
}
##DH300X300X35X35 
section Fiber 2 {
fiber -1.200E+002 -1.325E+002 2.100E+003 1
fiber -6.000E+001 -1.325E+002 2.100E+003 1
fiber 0.000E+000 -1.325E+002 2.100E+003 1
fiber 6.000E+001 -1.325E+002 2.100E+003 1
fiber 1.200E+002 -1.325E+002 2.100E+003 1
fiber -1.200E+002 1.325E+002 2.100E+003 1
fiber -6.000E+001 1.325E+002 2.100E+003 1
fiber 0.000E+000 1.325E+002 2.100E+003 1
fiber 6.000E+001 1.325E+002 2.100E+003 1
fiber 1.200E+002 1.325E+002 2.100E+003 1
fiber 0.000E+000 -9.200E+001 1.610E+003 1
fiber 0.000E+000 -4.600E+001 1.610E+003 1
fiber 0.000E+000 0.000E+000 1.610E+003 1
fiber 0.000E+000 4.600E+001 1.610E+003 1
fiber 0.000E+000 9.200E+001 1.610E+003 1
}
##DB400X400X20 
section Fiber 3 {
fiber -1.600E+002 -1.900E+002 1.600E+003 3
fiber -8.000E+001 -1.900E+002 1.600E+003 3
fiber 0.000E+000 -1.900E+002 1.600E+003 3
fiber 8.000E+001 -1.900E+002 1.600E+003 3
fiber 1.600E+002 -1.900E+002 1.600E+003 3
fiber -1.600E+002 1.900E+002 1.600E+003 3
fiber -8.000E+001 1.900E+002 1.600E+003 3
fiber 0.000E+000 1.900E+002 1.600E+003 3
fiber 8.000E+001 1.900E+002 1.600E+003 3
fiber 1.600E+002 1.900E+002 1.600E+003 3
fiber 0.000E+000 -1.440E+002 1.440E+003 3
fiber 0.000E+000 -7.200E+001 1.440E+003 3
fiber 0.000E+000 0.000E+000 1.440E+003 3
fiber 0.000E+000 7.200E+001 1.440E+003 3
fiber 0.000E+000 1.440E+002 1.440E+003 3
}

section Aggregator 1001 201 Vy 301 Vz 401 T -section 1
section Aggregator 1002 202 Vy 302 Vz 402 T -section 2
section Aggregator 1003 203 Vy 303 Vz 403 T -section 3

puts "transformation"
geomTransf Linear 1 1.000 0.000 0.000 
geomTransf Linear 2 1.000 0.000 0.000 
geomTransf Linear 3 1.000 0.000 0.000 
geomTransf Linear 4 1.000 0.000 0.000 
geomTransf Linear 5 1.000 0.000 0.000 
geomTransf Linear 6 1.000 0.000 0.000 
geomTransf Linear 7 0.000 0.000 1.000 
geomTransf Linear 8 0.000 0.000 1.000 
geomTransf Linear 9 0.000 0.000 1.000 
geomTransf Linear 10 0.000 0.000 1.000 
geomTransf Linear 11 0.000 0.000 1.000 
geomTransf Linear 12 0.000 0.000 1.000 
geomTransf Linear 13 0.000 0.000 1.000 
geomTransf Linear 14 -0.447 0.000 0.894 
geomTransf Linear 15 -0.447 0.000 0.894 
geomTransf Linear 16 -0.447 0.000 0.894 
geomTransf Linear 17 -0.447 0.000 0.894 
geomTransf Linear 18 -0.447 0.000 0.894 
geomTransf Linear 19 -0.447 0.000 0.894 
geomTransf Linear 20 1.000 0.000 0.000 
# ... 100 like lines cut
puts "element"
element dispBeamColumn 1 4 5 3 1002 1
element dispBeamColumn 2 10 6 3 1002 2
element dispBeamColumn 3 15 11 3 1002 3
element dispBeamColumn 4 20 16 3 1002 4
element dispBeamColumn 5 24 25 3 1002 5
element dispBeamColumn 6 40 36 3 1002 6
element dispBeamColumn 7 5 25 3 1001 7
element dispBeamColumn 8 6 26 3 1001 8
element dispBeamColumn 9 11 31 3 1001 9
element dispBeamColumn 10 16 36 3 1001 10
element dispBeamColumn 11 25 26 3 1001 11
element dispBeamColumn 12 26 31 3 1001 12
element dispBeamColumn 13 31 36 3 1001 13
element dispBeamColumn 14 30 41 3 1003 14
element dispBeamColumn 15 41 42 3 1003 15
element dispBeamColumn 16 42 43 3 1003 16
element dispBeamColumn 17 43 44 3 1003 17
element dispBeamColumn 18 44 45 3 1003 18
element dispBeamColumn 19 45 31 3 1003 19
element dispBeamColumn 20 35 31 3 1002 20
# ... 100 like lines cut
puts "shell element"
puts "SOLID element"
puts "recorder"

puts "gravity"
## Load Case = DEAD
pattern Plain 1 Linear {
eleLoad -ele 7 -type -beamUniform 0 -4.000E+000 0
eleLoad -ele 7 -type -beamUniform 0 -4.000E+000 0
eleLoad -ele 7 -type -beamUniform 0 -4.000E+000 0
eleLoad -ele 8 -type -beamUniform 0 -4.000E+000 0
eleLoad -ele 8 -type -beamUniform 0 -4.000E+000 0
eleLoad -ele 8 -type -beamUniform 0 -4.000E+000 0
eleLoad -ele 9 -type -beamUniform 0 -4.000E+000 0
eleLoad -ele 9 -type -beamUniform 0 -4.000E+000 0
eleLoad -ele 9 -type -beamUniform 0 -4.000E+000 0
eleLoad -ele 10 -type -beamUniform 0 -4.000E+000 0
eleLoad -ele 10 -type -beamUniform 0 -4.000E+000 0
eleLoad -ele 10 -type -beamUniform 0 -4.000E+000 0
eleLoad -ele 37 -type -beamUniform 0 -4.000E+000 0
eleLoad -ele 37 -type -beamUniform 0 -4.000E+000 0
eleLoad -ele 37 -type -beamUniform 0 -4.000E+000 0
eleLoad -ele 38 -type -beamUniform 0 -4.000E+000 0
eleLoad -ele 38 -type -beamUniform 0 -4.000E+000 0
eleLoad -ele 38 -type -beamUniform 0 -4.000E+000 0
eleLoad -ele 39 -type -beamUniform 0 -4.000E+000 0
eleLoad -ele 39 -type -beamUniform 0 -4.000E+000 0
# ... 100 like lines cut
}
puts "analysis"
constraints Plain
numberer Plain
system BandGeneral
test EnergyIncr 1.0e-6 200
algorithm Newton
integrator LoadControl 0.1
analysis Static
analyze 10

loadConst -time 0.0

recorder Node -file node0.out -time -nodeRange 1 80 -dof 1 2 3 disp
recorder Node -file node25.out -time -node 25 -dof 1 2 3 disp

recorder Element -file ele85a.out -time -ele 85 localForce
recorder Element -file ele85b.out -time -ele 85 section 1 deformation


puts "pushover"
## Load Case = PUSH
pattern Plain 3 Linear {
load 5 4.000E+005 0.000E+000 0.000E+000 0.000E+000 0.000E+000 0.000E+000
load 25 4.000E+005 0.000E+000 0.000E+000 0.000E+000 0.000E+000 0.000E+000
load 4 3.000E+005 0.000E+000 0.000E+000 0.000E+000 0.000E+000 0.000E+000
load 24 3.000E+005 0.000E+000 0.000E+000 0.000E+000 0.000E+000 0.000E+000
load 3 2.000E+005 0.000E+000 0.000E+000 0.000E+000 0.000E+000 0.000E+000
load 23 2.000E+005 0.000E+000 0.000E+000 0.000E+000 0.000E+000 0.000E+000
load 2 1.000E+005 0.000E+000 0.000E+000 0.000E+000 0.000E+000 0.000E+000
load 22 1.000E+005 0.000E+000 0.000E+000 0.000E+000 0.000E+000 0.000E+000
}
puts "analysis"
constraints Plain
numberer Plain
system BandGeneral
test EnergyIncr 1.0e-6 200
algorithm Newton
integrator DisplacementControl 25 1 4
analysis Static
analyze 50

integrator DisplacementControl 25 1 -8
analyze 50
integrator DisplacementControl 25 1 12
analyze 50
integrator DisplacementControl 25 1 -16
analyze 50