wipe
puts "System"
model basic -ndm 3 -ndf 6
puts "restraint"
node 1 7.500E+001 0.000E+000 1.925E+003
node 2 7.500E+001 0.000E+000 2.000E+003
node 3 0.000E+000 0.000E+000 2.000E+003
node 4 0.000E+000 0.000E+000 1.925E+003
node 5 1.500E+002 0.000E+000 1.925E+003
node 6 1.500E+002 0.000E+000 2.000E+003
node 7 2.250E+002 0.000E+000 1.925E+003
node 8 2.250E+002 0.000E+000 2.000E+003
node 9 3.000E+002 0.000E+000 1.925E+003
node 10 3.000E+002 0.000E+000 2.000E+003
node 11 7.500E+001 0.000E+000 1.850E+003
node 12 0.000E+000 0.000E+000 1.850E+003
node 13 1.500E+002 0.000E+000 1.850E+003
node 14 2.250E+002 0.000E+000 1.850E+003
node 15 3.000E+002 0.000E+000 1.850E+003
node 16 7.500E+001 0.000E+000 1.775E+003
node 17 0.000E+000 0.000E+000 1.775E+003
node 18 1.500E+002 0.000E+000 1.775E+003
node 19 2.250E+002 0.000E+000 1.775E+003
node 20 3.000E+002 0.000E+000 1.775E+003
# ... 560 like lines cut
puts "rigidDiaphragm"
puts "mass"
mass 2 1.258E-002 1.258E-002 0.000E+000 0.000E+000 0.000E+000 0.000E+000
mass 3 6.292E-003 6.292E-003 0.000E+000 0.000E+000 0.000E+000 0.000E+000
mass 6 2.027E-002 2.027E-002 0.000E+000 0.000E+000 0.000E+000 0.000E+000
mass 8 1.258E-002 1.258E-002 0.000E+000 0.000E+000 0.000E+000 0.000E+000
mass 10 6.292E-003 6.292E-003 0.000E+000 0.000E+000 0.000E+000 0.000E+000
mass 37 1.300E-002 1.300E-002 0.000E+000 0.000E+000 0.000E+000 0.000E+000
mass 38 6.502E-003 6.502E-003 0.000E+000 0.000E+000 0.000E+000 0.000E+000
mass 41 2.203E-002 2.203E-002 0.000E+000 0.000E+000 0.000E+000 0.000E+000
mass 43 1.300E-002 1.300E-002 0.000E+000 0.000E+000 0.000E+000 0.000E+000
mass 45 6.502E-003 6.502E-003 0.000E+000 0.000E+000 0.000E+000 0.000E+000
mass 111 6.292E-003 6.292E-003 0.000E+000 0.000E+000 0.000E+000 0.000E+000
mass 112 1.258E-002 1.258E-002 0.000E+000 0.000E+000 0.000E+000 0.000E+000
mass 115 2.027E-002 2.027E-002 0.000E+000 0.000E+000 0.000E+000 0.000E+000
mass 117 1.258E-002 1.258E-002 0.000E+000 0.000E+000 0.000E+000 0.000E+000
mass 119 6.292E-003 6.292E-003 0.000E+000 0.000E+000 0.000E+000 0.000E+000
mass 146 6.502E-003 6.502E-003 0.000E+000 0.000E+000 0.000E+000 0.000E+000
mass 147 1.300E-002 1.300E-002 0.000E+000 0.000E+000 0.000E+000 0.000E+000
mass 150 2.203E-002 2.203E-002 0.000E+000 0.000E+000 0.000E+000 0.000E+000
mass 152 1.300E-002 1.300E-002 0.000E+000 0.000E+000 0.000E+000 0.000E+000
mass 154 6.502E-003 6.502E-003 0.000E+000 0.000E+000 0.000E+000 0.000E+000
# ... 210 like lines cut
puts "node"
fix 2 1 1 1 1 1 1;
fix 3 1 1 1 1 1 1;
fix 6 1 1 1 1 1 1;
fix 8 1 1 1 1 1 1;
fix 10 1 1 1 1 1 1;
fix 37 1 1 1 1 1 1;
fix 38 1 1 1 1 1 1;
fix 41 1 1 1 1 1 1;
fix 43 1 1 1 1 1 1;
fix 45 1 1 1 1 1 1;
fix 111 1 1 1 1 1 1;
fix 112 1 1 1 1 1 1;
fix 115 1 1 1 1 1 1;
fix 117 1 1 1 1 1 1;
fix 119 1 1 1 1 1 1;
fix 146 1 1 1 1 1 1;
fix 147 1 1 1 1 1 1;
fix 150 1 1 1 1 1 1;
fix 152 1 1 1 1 1 1;
fix 154 1 1 1 1 1 1;
# ... 8 like lines cut
puts "Equal DOF"
puts "material"

##nDMaterial ElasticIsotropic 16 206000 0.3


nDMaterial J2Plasticity 16 171666 79231 200 300 1.0 1.0
##SHELL20 
nDMaterial PlateFiber 601 16
section PlateFiber 701 601 20.00
puts "transformation"
puts "element"
puts "shell element"
element ShellMITC4 0 1 2 3 4 701
element ShellMITC4 1 5 6 2 1 701
element ShellMITC4 2 7 8 6 5 701
element ShellMITC4 3 9 10 8 7 701
element ShellMITC4 4 11 1 4 12 701
element ShellMITC4 5 13 5 1 11 701
element ShellMITC4 6 14 7 5 13 701
element ShellMITC4 7 15 9 7 14 701
element ShellMITC4 8 16 11 12 17 701
element ShellMITC4 9 18 13 11 16 701
element ShellMITC4 10 19 14 13 18 701
element ShellMITC4 11 20 15 14 19 701
element ShellMITC4 12 21 16 17 22 701
element ShellMITC4 13 23 18 16 21 701
element ShellMITC4 14 24 19 18 23 701
element ShellMITC4 15 25 20 19 24 701
element ShellMITC4 16 26 21 22 27 701
element ShellMITC4 17 28 23 21 26 701
element ShellMITC4 18 29 24 23 28 701
element ShellMITC4 19 30 25 24 29 701
# ... 522 like lines cut
puts "SOLID element"
puts "recorder"
recorder Node -file node0.out -time -nodeRange 1 100 -dof 1 2 3 disp
recorder Node -file node1.out -time -nodeRange 101 200 -dof 1 2 3 disp
recorder Node -file node2.out -time -nodeRange 201 300 -dof 1 2 3 disp
recorder Node -file node3.out -time -nodeRange 301 400 -dof 1 2 3 disp
recorder Node -file node4.out -time -nodeRange 401 500 -dof 1 2 3 disp
recorder Node -file node5.out -time -nodeRange 501 580 -dof 1 2 3 disp
recorder Node -file node286.out -time -node 286 -dof 1 2 3 disp

recorder Element -file Stress366.out -time -ele 366 stresses

puts "loading"
## Load Case = PUSH
pattern Plain 3 Linear {
load 272 0.000E+000 0.000E+000 -4.000E+005 0.000E+000 0.000E+000 0.000E+000
load 273 0.000E+000 0.000E+000 -4.000E+005 0.000E+000 0.000E+000 0.000E+000
load 286 0.000E+000 0.000E+000 -4.000E+005 0.000E+000 0.000E+000 0.000E+000
load 293 0.000E+000 0.000E+000 -4.000E+005 0.000E+000 0.000E+000 0.000E+000
load 300 0.000E+000 0.000E+000 -4.000E+005 0.000E+000 0.000E+000 0.000E+000
}
puts "analysis"
constraints Plain
numberer Plain
system BandGeneral
test EnergyIncr 1.0e-6 200
algorithm Newton
integrator DisplacementControl 286 3 -1.000E+000
analysis Static
analyze 10