wipe
puts "System"
model basic -ndm 3 -ndf 6
puts "restraint"
node 1 -2.400E+003 -4.157E+003 0.000E+000
node 2 2.400E+003 -4.157E+003 0.000E+000
node 3 -4.800E+003 0.000E+000 0.000E+000
node 4 2.400E+003 4.157E+003 0.000E+000
node 5 -2.400E+003 4.157E+003 0.000E+000
node 6 4.800E+003 0.000E+000 0.000E+000
node 7 0.000E+000 0.000E+000 5.000E+002
node 8 2.000E+003 -3.464E+003 8.330E+001
node 9 1.600E+003 -2.771E+003 1.667E+002
node 10 1.200E+003 -2.079E+003 2.500E+002
node 11 8.000E+002 -1.386E+003 3.333E+002
node 12 4.000E+002 -6.928E+002 4.167E+002
node 13 -2.000E+003 -3.464E+003 8.330E+001
node 14 -1.600E+003 -2.771E+003 1.667E+002
node 15 -1.200E+003 -2.079E+003 2.500E+002
node 16 -8.000E+002 -1.386E+003 3.333E+002
node 17 -4.000E+002 -6.928E+002 4.167E+002
node 18 -4.000E+003 0.000E+000 8.330E+001
node 19 -3.200E+003 0.000E+000 1.667E+002
node 20 -2.400E+003 0.000E+000 2.500E+002
# ... 47 like lines cut
puts "rigidDiaphragm"
puts "mass"
mass 1 6.523E-002 6.523E-002 0.000E+000 0.000E+000 0.000E+000 0.000E+000
mass 2 6.523E-002 6.523E-002 0.000E+000 0.000E+000 0.000E+000 0.000E+000
mass 3 6.523E-002 6.523E-002 0.000E+000 0.000E+000 0.000E+000 0.000E+000
mass 4 6.523E-002 6.523E-002 0.000E+000 0.000E+000 0.000E+000 0.000E+000
mass 5 6.523E-002 6.523E-002 0.000E+000 0.000E+000 0.000E+000 0.000E+000
mass 6 6.523E-002 6.523E-002 0.000E+000 0.000E+000 0.000E+000 0.000E+000
mass 7 1.309E-001 1.309E-001 0.000E+000 0.000E+000 0.000E+000 0.000E+000
mass 8 4.364E-002 4.364E-002 0.000E+000 0.000E+000 0.000E+000 0.000E+000
mass 9 4.364E-002 4.364E-002 0.000E+000 0.000E+000 0.000E+000 0.000E+000
mass 10 4.364E-002 4.364E-002 0.000E+000 0.000E+000 0.000E+000 0.000E+000
mass 11 4.364E-002 4.364E-002 0.000E+000 0.000E+000 0.000E+000 0.000E+000
mass 12 4.364E-002 4.364E-002 0.000E+000 0.000E+000 0.000E+000 0.000E+000
mass 13 4.364E-002 4.364E-002 0.000E+000 0.000E+000 0.000E+000 0.000E+000
mass 14 4.364E-002 4.364E-002 0.000E+000 0.000E+000 0.000E+000 0.000E+000
mass 15 4.364E-002 4.364E-002 0.000E+000 0.000E+000 0.000E+000 0.000E+000
mass 16 4.364E-002 4.364E-002 0.000E+000 0.000E+000 0.000E+000 0.000E+000
mass 17 4.364E-002 4.364E-002 0.000E+000 0.000E+000 0.000E+000 0.000E+000
mass 18 4.364E-002 4.364E-002 0.000E+000 0.000E+000 0.000E+000 0.000E+000
mass 19 4.364E-002 4.364E-002 0.000E+000 0.000E+000 0.000E+000 0.000E+000
mass 20 4.364E-002 4.364E-002 0.000E+000 0.000E+000 0.000E+000 0.000E+000
# ... 47 like lines cut
puts "node"
fix 1 1 1 1 0 0 0;
fix 2 1 1 1 0 0 0;
fix 3 1 1 1 0 0 0;
fix 4 1 1 1 0 0 0;
fix 5 1 1 1 0 0 0;
fix 6 1 1 1 0 0 0;
puts "material"
uniaxialMaterial Elastic 1 2.060E+005
uniaxialMaterial Elastic 2 2.482E+004
uniaxialMaterial Elastic 3 1.999E+005
uniaxialMaterial Elastic 201 1.585E+008
uniaxialMaterial Elastic 301 3.169E+008
uniaxialMaterial Elastic 401 2.738E+010
##DH200X200X12X12 
section Fiber 1 {
fiber -9.167E+001 -9.400E+001 2.000E+002 1
fiber -7.500E+001 -9.400E+001 2.000E+002 1
fiber -5.833E+001 -9.400E+001 2.000E+002 1
fiber -4.167E+001 -9.400E+001 2.000E+002 1
fiber -2.500E+001 -9.400E+001 2.000E+002 1
fiber -8.333E+000 -9.400E+001 2.000E+002 1
fiber 8.333E+000 -9.400E+001 2.000E+002 1
fiber 2.500E+001 -9.400E+001 2.000E+002 1
fiber 4.167E+001 -9.400E+001 2.000E+002 1
fiber 5.833E+001 -9.400E+001 2.000E+002 1
fiber 7.500E+001 -9.400E+001 2.000E+002 1
fiber 9.167E+001 -9.400E+001 2.000E+002 1
fiber -9.167E+001 9.400E+001 2.000E+002 1
fiber -7.500E+001 9.400E+001 2.000E+002 1
fiber -5.833E+001 9.400E+001 2.000E+002 1
fiber -4.167E+001 9.400E+001 2.000E+002 1
fiber -2.500E+001 9.400E+001 2.000E+002 1
fiber -8.333E+000 9.400E+001 2.000E+002 1
fiber 8.333E+000 9.400E+001 2.000E+002 1
fiber 2.500E+001 9.400E+001 2.000E+002 1
# ... 16 like lines cut
}
section Aggregator 1001 201 Vy 301 Vz 401 T -section 1
puts "transformation"
geomTransf Corotational 1 0.052 -0.090 0.995 
geomTransf Corotational 2 0.052 -0.090 0.995 
geomTransf Corotational 3 0.052 -0.090 0.995 
geomTransf Corotational 4 0.052 -0.090 0.995 
geomTransf Corotational 5 0.052 -0.090 0.995 
geomTransf Corotational 6 0.052 -0.090 0.995 
geomTransf Corotational 7 -0.052 -0.090 0.995 
geomTransf Corotational 8 -0.052 -0.090 0.995 
geomTransf Corotational 9 -0.052 -0.090 0.995 
geomTransf Corotational 10 -0.052 -0.090 0.995 
geomTransf Corotational 11 -0.052 -0.090 0.995 
geomTransf Corotational 12 -0.052 -0.090 0.995 
geomTransf Corotational 13 -0.104 0.000 0.995 
geomTransf Corotational 14 -0.104 0.000 0.995 
geomTransf Corotational 15 -0.104 0.000 0.995 
geomTransf Corotational 16 -0.104 0.000 0.995 
geomTransf Corotational 17 -0.104 0.000 0.995 
geomTransf Corotational 18 -0.104 0.000 0.995 
geomTransf Corotational 19 0.104 0.000 0.995 
geomTransf Corotational 20 0.104 0.000 0.995 
# ... 52 like lines cut
puts "element"
element dispBeamColumn 1 2 8 3 1001 1
element dispBeamColumn 2 8 9 3 1001 2
element dispBeamColumn 3 9 10 3 1001 3
element dispBeamColumn 4 10 11 3 1001 4
element dispBeamColumn 5 11 12 3 1001 5
element dispBeamColumn 6 12 7 3 1001 6
element dispBeamColumn 7 1 13 3 1001 7
element dispBeamColumn 8 13 14 3 1001 8
element dispBeamColumn 9 14 15 3 1001 9
element dispBeamColumn 10 15 16 3 1001 10
element dispBeamColumn 11 16 17 3 1001 11
element dispBeamColumn 12 17 7 3 1001 12
element dispBeamColumn 13 3 18 3 1001 13
element dispBeamColumn 14 18 19 3 1001 14
element dispBeamColumn 15 19 20 3 1001 15
element dispBeamColumn 16 20 21 3 1001 16
element dispBeamColumn 17 21 22 3 1001 17
element dispBeamColumn 18 22 7 3 1001 18
element dispBeamColumn 19 6 23 3 1001 19
element dispBeamColumn 20 23 24 3 1001 20
# ... 52 like lines cut
puts "recorder"
recorder Node -file node0.out -time -nodeRange 1 67 -dof 1 2 3 disp
recorder Node -file node7.out -time -node 7 -dof 1 2 3 disp
puts "loading"
## Load Case = DEAD
pattern Plain 1 Linear {
load 7 0.000E+000 0.000E+000 -1.000E+003 0.000E+000 0.000E+000 0.000E+000
}
puts "analysis"
constraints Lagrange 
numberer RCM
system UmfPack
test EnergyIncr 1.0e-6 200
algorithm Newton
integrator DisplacementControl 7 3 -5
analysis Static
analyze 200
