wipe
puts "System"
model basic -ndm 3 -ndf 6
puts "restraint"
node 1 -6.750E+003 -4.500E+003 3.000E+003
node 2 -6.750E+003 0.000E+000 3.000E+003
node 3 -6.750E+003 4.500E+003 3.000E+003
node 4 -2.250E+003 -4.500E+003 3.000E+003
node 5 -2.250E+003 0.000E+000 3.000E+003
node 6 -2.250E+003 4.500E+003 3.000E+003
node 7 2.250E+003 -4.500E+003 3.000E+003
node 8 2.250E+003 0.000E+000 3.000E+003
node 9 2.250E+003 4.500E+003 3.000E+003
node 10 6.750E+003 -4.500E+003 3.000E+003
node 11 6.750E+003 0.000E+000 3.000E+003
node 12 6.750E+003 4.500E+003 3.000E+003
node 13 -6.750E+003 -4.500E+003 6.000E+003
node 14 -6.750E+003 0.000E+000 6.000E+003
node 15 -6.750E+003 4.500E+003 6.000E+003
node 16 -2.250E+003 -4.500E+003 6.000E+003
node 17 -2.250E+003 0.000E+000 6.000E+003
node 18 -2.250E+003 4.500E+003 6.000E+003
node 19 2.250E+003 -4.500E+003 6.000E+003
node 20 2.250E+003 0.000E+000 6.000E+003
# ... 52 like lines cut
puts "rigidDiaphragm"
puts "mass"
puts "node"
fix 61 1 1 1 1 1 1;
fix 62 1 1 1 1 1 1;
fix 63 1 1 1 1 1 1;
fix 64 1 1 1 1 1 1;
fix 65 1 1 1 1 1 1;
fix 66 1 1 1 1 1 1;
fix 67 1 1 1 1 1 1;
fix 68 1 1 1 1 1 1;
fix 69 1 1 1 1 1 1;
fix 70 1 1 1 1 1 1;
fix 71 1 1 1 1 1 1;
fix 72 1 1 1 1 1 1;
puts "Equal DOF"
puts "material"
uniaxialMaterial Elastic 1 2.482E+004
uniaxialMaterial Elastic 2 1.999E+005
uniaxialMaterial Elastic 3 1.999E+005

##C400*400 
section Fiber 2 -GJ 4.507E+013 {
fiber -1.600E+002 -1.600E+002 6.400E+003 1
fiber -8.000E+001 -1.600E+002 6.400E+003 1
fiber 0.000E+000 -1.600E+002 6.400E+003 1
fiber 8.000E+001 -1.600E+002 6.400E+003 1
fiber 1.600E+002 -1.600E+002 6.400E+003 1
fiber -1.600E+002 -8.000E+001 6.400E+003 1
fiber -8.000E+001 -8.000E+001 6.400E+003 1
fiber 0.000E+000 -8.000E+001 6.400E+003 1
fiber 8.000E+001 -8.000E+001 6.400E+003 1
fiber 1.600E+002 -8.000E+001 6.400E+003 1
fiber -1.600E+002 0.000E+000 6.400E+003 1
fiber -8.000E+001 0.000E+000 6.400E+003 1
fiber 0.000E+000 0.000E+000 6.400E+003 1
fiber 8.000E+001 0.000E+000 6.400E+003 1
fiber 1.600E+002 0.000E+000 6.400E+003 1
fiber -1.600E+002 8.000E+001 6.400E+003 1
fiber -8.000E+001 8.000E+001 6.400E+003 1
fiber 0.000E+000 8.000E+001 6.400E+003 1
fiber 8.000E+001 8.000E+001 6.400E+003 1
fiber 1.600E+002 8.000E+001 6.400E+003 1
# ... 25 like lines cut
}

puts "transformation"
geomTransf Linear 1 0.000 0.000 1.000 
geomTransf Linear 2 0.000 0.000 1.000 
geomTransf Linear 3 0.000 0.000 1.000 
geomTransf Linear 4 0.000 0.000 1.000 
geomTransf Linear 5 0.000 0.000 1.000 
geomTransf Linear 6 0.000 0.000 1.000 
geomTransf Linear 7 0.000 0.000 1.000 
geomTransf Linear 8 0.000 0.000 1.000 
geomTransf Linear 9 0.000 0.000 1.000 
geomTransf Linear 10 0.000 0.000 1.000 
geomTransf Linear 11 0.000 0.000 1.000 
geomTransf Linear 12 0.000 0.000 1.000 
geomTransf Linear 13 0.000 0.000 1.000 
geomTransf Linear 14 0.000 0.000 1.000 
geomTransf Linear 15 0.000 0.000 1.000 
geomTransf Linear 16 0.000 0.000 1.000 
geomTransf Linear 17 0.000 0.000 1.000 
geomTransf Linear 18 0.000 0.000 1.000 
geomTransf Linear 19 0.000 0.000 1.000 
geomTransf Linear 20 0.000 0.000 1.000 
# ... 65 like lines cut
puts "element"
element elasticBeamColumn 1 1 2 1.200E+005 3.000E+004 1.250E+004 1.944E+009 1.600E+009 9.000E+008 1
element elasticBeamColumn 2 2 3 1.200E+005 3.000E+004 1.250E+004 1.944E+009 1.600E+009 9.000E+008 2
element elasticBeamColumn 3 4 5 1.200E+005 3.000E+004 1.250E+004 1.944E+009 1.600E+009 9.000E+008 3
element elasticBeamColumn 4 5 6 1.200E+005 3.000E+004 1.250E+004 1.944E+009 1.600E+009 9.000E+008 4
element elasticBeamColumn 5 7 8 1.200E+005 3.000E+004 1.250E+004 1.944E+009 1.600E+009 9.000E+008 5
element elasticBeamColumn 6 8 9 1.200E+005 3.000E+004 1.250E+004 1.944E+009 1.600E+009 9.000E+008 6
element elasticBeamColumn 7 10 11 1.200E+005 3.000E+004 1.250E+004 1.944E+009 1.600E+009 9.000E+008 7
element elasticBeamColumn 8 11 12 1.200E+005 3.000E+004 1.250E+004 1.944E+009 1.600E+009 9.000E+008 8
element elasticBeamColumn 9 1 4 1.200E+005 3.000E+004 1.250E+004 1.944E+009 1.600E+009 9.000E+008 9
element elasticBeamColumn 10 4 7 1.200E+005 3.000E+004 1.250E+004 1.944E+009 1.600E+009 9.000E+008 10
element elasticBeamColumn 11 7 10 1.200E+005 3.000E+004 1.250E+004 1.944E+009 1.600E+009 9.000E+008 11
element elasticBeamColumn 12 2 5 1.200E+005 3.000E+004 1.250E+004 1.944E+009 1.600E+009 9.000E+008 12
element elasticBeamColumn 13 5 8 1.200E+005 3.000E+004 1.250E+004 1.944E+009 1.600E+009 9.000E+008 13
element elasticBeamColumn 14 8 11 1.200E+005 3.000E+004 1.250E+004 1.944E+009 1.600E+009 9.000E+008 14
element elasticBeamColumn 15 3 6 1.200E+005 3.000E+004 1.250E+004 1.944E+009 1.600E+009 9.000E+008 15
element elasticBeamColumn 16 6 9 1.200E+005 3.000E+004 1.250E+004 1.944E+009 1.600E+009 9.000E+008 16
element elasticBeamColumn 17 9 12 1.200E+005 3.000E+004 1.250E+004 1.944E+009 1.600E+009 9.000E+008 17
element elasticBeamColumn 18 13 14 1.200E+005 3.000E+004 1.250E+004 1.944E+009 1.600E+009 9.000E+008 18
element elasticBeamColumn 19 14 15 1.200E+005 3.000E+004 1.250E+004 1.944E+009 1.600E+009 9.000E+008 19
element elasticBeamColumn 20 16 17 1.200E+005 3.000E+004 1.250E+004 1.944E+009 1.600E+009 9.000E+008 20
# ... 65 like lines cut
element corotTrussSection 86 61 3 2
element corotTrussSection 87 3 15 2
element corotTrussSection 88 15 27 2
element corotTrussSection 89 27 39 2
element corotTrussSection 90 39 51 2
element corotTrussSection 91 62 6 2
element corotTrussSection 92 6 18 2
element corotTrussSection 93 18 30 2
element corotTrussSection 94 30 42 2
element corotTrussSection 95 42 54 2
element corotTrussSection 96 63 9 2
element corotTrussSection 97 9 21 2
element corotTrussSection 98 21 33 2
element corotTrussSection 99 33 45 2
element corotTrussSection 100 45 57 2
element corotTrussSection 101 64 12 2
element corotTrussSection 102 12 24 2
element corotTrussSection 103 24 36 2
element corotTrussSection 104 36 48 2
element corotTrussSection 105 48 60 2
# ... 40 like lines cut
puts "shell element"
puts "SOLID element"
puts "recorder"
recorder Node -file node0.out -time -nodeRange 1 36 -dof 1 2 3 disp
recorder Node -file node60.out -time -node 60 -dof 1 2 3 disp
 
set xDamp 0.05;
set nEigenI 1;
set nEigenJ 2;
set lambdaN [eigen [expr $nEigenJ]];
set lambdaI [lindex $lambdaN [expr $nEigenI-1]];
set lambdaJ [lindex $lambdaN [expr $nEigenJ-1]];
set omegaI [expr pow($lambdaI,0.5)]; 
set omegaJ [expr pow($lambdaJ,0.5)];
set alphaM [expr $xDamp*(2*$omegaI*$omegaJ)/($omegaI+$omegaJ)]; 
set betaKcurr [expr 2.*$xDamp/($omegaI+$omegaJ)];   
rayleigh $alphaM $betaKcurr 0 0  
  
set IDloadTag 1001;
set iGMfile "GMX.txt";
##地震波文件
set iGMdirection "1"; 
##地震波方向，1代表X
set iGMfact "0.276";  
##地震波系数
set dt 0.02;   
##时间间隔
foreach GMdirection $iGMdirection GMfile $iGMfile GMfact $iGMfact { 
incr IDloadTag; 
set GMfatt [expr 1*$iGMfact];  
set AccelSeries "Series -dt $dt -filePath $iGMfile -factor  $GMfatt";
pattern UniformExcitation  $IDloadTag  $GMdirection -accel  $AccelSeries; 
}  
  
constraints Transformation; 
numberer Plain;  
system UmfPack; 
test EnergyIncr 1.0e-4 200; 
algorithm Newton 
integrator Newmark 0.5 0.25 
analysis Transient
analyze 1000 0.02
