wipe
puts "System"
model basic -ndm 3 -ndf 6
puts "restraint"
node 1 0.000E+000 0.000E+000 0.000E+000
node 2 5.000E+002 0.000E+000 0.000E+000
node 3 5.000E+002 0.000E+000 3.000E+003
node 4 0.000E+000 0.000E+000 3.000E+003
node 5 0.000E+000 7.000E+002 0.000E+000
node 6 0.000E+000 7.000E+002 3.000E+003
node 7 1.000E+002 0.000E+000 0.000E+000
node 8 1.000E+002 0.000E+000 3.000E+002
node 9 0.000E+000 0.000E+000 3.000E+002
node 10 1.000E+002 0.000E+000 6.000E+002
node 11 0.000E+000 0.000E+000 6.000E+002
node 12 1.000E+002 0.000E+000 9.000E+002
node 13 0.000E+000 0.000E+000 9.000E+002
node 14 1.000E+002 0.000E+000 1.200E+003
node 15 0.000E+000 0.000E+000 1.200E+003
node 16 1.000E+002 0.000E+000 1.500E+003
node 17 0.000E+000 0.000E+000 1.500E+003
node 18 1.000E+002 0.000E+000 1.800E+003
node 19 0.000E+000 0.000E+000 1.800E+003
node 20 1.000E+002 0.000E+000 2.100E+003
# ... 101 like lines cut
puts "rigidDiaphragm"
puts "mass"
mass 1 4.500E-002 4.500E-002 0.000E+000 0.000E+000 0.000E+000 0.000E+000
mass 2 1.875E-002 1.875E-002 0.000E+000 0.000E+000 0.000E+000 0.000E+000
mass 3 1.875E-002 1.875E-002 0.000E+000 0.000E+000 0.000E+000 0.000E+000
mass 4 4.500E-002 4.500E-002 0.000E+000 0.000E+000 0.000E+000 0.000E+000
mass 5 2.625E-002 2.625E-002 0.000E+000 0.000E+000 0.000E+000 0.000E+000
mass 6 2.625E-002 2.625E-002 0.000E+000 0.000E+000 0.000E+000 0.000E+000
mass 7 3.750E-002 3.750E-002 0.000E+000 0.000E+000 0.000E+000 0.000E+000
mass 26 3.750E-002 3.750E-002 0.000E+000 0.000E+000 0.000E+000 0.000E+000
mass 27 3.750E-002 3.750E-002 0.000E+000 0.000E+000 0.000E+000 0.000E+000
mass 37 3.750E-002 3.750E-002 0.000E+000 0.000E+000 0.000E+000 0.000E+000
mass 38 3.750E-002 3.750E-002 0.000E+000 0.000E+000 0.000E+000 0.000E+000
mass 48 3.750E-002 3.750E-002 0.000E+000 0.000E+000 0.000E+000 0.000E+000
mass 49 3.750E-002 3.750E-002 0.000E+000 0.000E+000 0.000E+000 0.000E+000
mass 59 3.750E-002 3.750E-002 0.000E+000 0.000E+000 0.000E+000 0.000E+000
mass 69 5.250E-002 5.250E-002 0.000E+000 0.000E+000 0.000E+000 0.000E+000
mass 79 5.250E-002 5.250E-002 0.000E+000 0.000E+000 0.000E+000 0.000E+000
mass 80 5.250E-002 5.250E-002 0.000E+000 0.000E+000 0.000E+000 0.000E+000
mass 90 5.250E-002 5.250E-002 0.000E+000 0.000E+000 0.000E+000 0.000E+000
mass 91 5.250E-002 5.250E-002 0.000E+000 0.000E+000 0.000E+000 0.000E+000
mass 101 5.250E-002 5.250E-002 0.000E+000 0.000E+000 0.000E+000 0.000E+000
mass 102 5.250E-002 5.250E-002 0.000E+000 0.000E+000 0.000E+000 0.000E+000
mass 112 5.250E-002 5.250E-002 0.000E+000 0.000E+000 0.000E+000 0.000E+000
puts "node"
fix 1 1 1 1 1 1 1;
fix 2 1 1 1 1 1 1;
fix 5 1 1 1 1 1 1;
fix 7 1 1 1 1 1 1;
fix 27 1 1 1 1 1 1;
fix 38 1 1 1 1 1 1;
fix 49 1 1 1 1 1 1;
fix 69 1 1 1 1 1 1;
fix 80 1 1 1 1 1 1;
fix 91 1 1 1 1 1 1;
fix 102 1 1 1 1 1 1;
puts "material"
uniaxialMaterial Elastic 1 1.999E+005
############################################################################################################修改代码
nDMaterial ElasticIsotropic 2 32500 0.2    
uniaxialMaterial Elastic 3 1.999E+005
##S100 
nDMaterial PlateFiber 601 2
section PlateFiber 701 601 100.00
puts "transformation"
puts "element"
puts "shell element"
element ShellMITC4 1 1 7 8 9 701
element ShellMITC4 2 9 8 10 11 701
element ShellMITC4 3 11 10 12 13 701
element ShellMITC4 4 13 12 14 15 701
element ShellMITC4 5 15 14 16 17 701
element ShellMITC4 6 17 16 18 19 701
element ShellMITC4 7 19 18 20 21 701
element ShellMITC4 8 21 20 22 23 701
element ShellMITC4 9 23 22 24 25 701
element ShellMITC4 10 25 24 26 4 701
element ShellMITC4 11 7 27 28 8 701
element ShellMITC4 12 8 28 29 10 701
element ShellMITC4 13 10 29 30 12 701
element ShellMITC4 14 12 30 31 14 701
element ShellMITC4 15 14 31 32 16 701
element ShellMITC4 16 16 32 33 18 701
element ShellMITC4 17 18 33 34 20 701
element ShellMITC4 18 20 34 35 22 701
element ShellMITC4 19 22 35 36 24 701
element ShellMITC4 20 24 36 37 26 701
# ... 80 like lines cut
puts "recorder"
recorder Node -file node0.out -time -nodeRange 1 100 -dof 1 2 3 disp
recorder Node -file node1.out -time -nodeRange 101 121 -dof 1 2 3 disp
############################################################################################################修改代码
recorder Node -file node6.out -time -node 6 -dof 1 2 3 disp
puts "loading"
## Load Case = PUSH
pattern Plain 1 Linear {
load 4 1.000E+005 0.000E+000 0.000E+000 0.000E+000 0.000E+000 0.000E+000
load 6 1.000E+005 0.000E+000 0.000E+000 0.000E+000 0.000E+000 0.000E+000
load 79 1.000E+005 0.000E+000 0.000E+000 0.000E+000 0.000E+000 0.000E+000
load 90 1.000E+005 0.000E+000 0.000E+000 0.000E+000 0.000E+000 0.000E+000
load 101 1.000E+005 0.000E+000 0.000E+000 0.000E+000 0.000E+000 0.000E+000
load 112 1.000E+005 0.000E+000 0.000E+000 0.000E+000 0.000E+000 0.000E+000
}
puts "analysis"
constraints Plain
numberer Plain
system BandGeneral
test EnergyIncr 1.0e-6 200
algorithm Newton
integrator LoadControl 1.000E+000
analysis Static
analyze 1
