wipe
puts "System"
model basic -ndm 3 -ndf 3
puts "restraint"
node 1 0.000E+000 -7.500E+001 0.000E+000
node 2 5.000E+001 -7.500E+001 0.000E+000
node 3 1.000E+002 -7.500E+001 0.000E+000
node 4 1.500E+002 -7.500E+001 0.000E+000
node 5 2.000E+002 -7.500E+001 0.000E+000
node 6 2.500E+002 -7.500E+001 0.000E+000
node 7 3.000E+002 -7.500E+001 0.000E+000
node 8 3.500E+002 -7.500E+001 0.000E+000
node 9 4.000E+002 -7.500E+001 0.000E+000
node 10 4.500E+002 -7.500E+001 0.000E+000
node 11 5.000E+002 -7.500E+001 0.000E+000
node 12 5.500E+002 -7.500E+001 0.000E+000
node 13 6.000E+002 -7.500E+001 0.000E+000
node 14 6.500E+002 -7.500E+001 0.000E+000
node 15 7.000E+002 -7.500E+001 0.000E+000
node 16 7.500E+002 -7.500E+001 0.000E+000
node 17 8.000E+002 -7.500E+001 0.000E+000
node 18 0.000E+000 0.000E+000 0.000E+000
node 19 5.000E+001 0.000E+000 0.000E+000
node 20 1.000E+002 0.000E+000 0.000E+000
# ... 460 like lines cut
puts "rigidDiaphragm"
puts "mass"
puts "node"
fix 1 1 1 1 1 1 1;
fix 18 1 1 1 1 1 1;
fix 35 1 1 1 1 1 1;
fix 58 1 1 1 1 1 1;
fix 71 1 1 1 1 1 1;
fix 84 1 1 1 1 1 1;
fix 115 1 1 1 1 1 1;
fix 129 1 1 1 1 1 1;
fix 143 1 1 1 1 1 1;
fix 172 1 1 1 1 1 1;
fix 185 1 1 1 1 1 1;
fix 198 1 1 1 1 1 1;
fix 217 1 1 1 1 1 1;
fix 233 1 1 1 1 1 1;
fix 249 1 1 1 1 1 1;
fix 271 1 1 1 1 1 1;
fix 284 1 1 1 1 1 1;
fix 297 1 1 1 1 1 1;
fix 325 1 1 1 1 1 1;
fix 339 1 1 1 1 1 1;
# ... 7 like lines cut
puts "Equal DOF"
puts "material"
nDMaterial ElasticIsotropic 100 206000 0.3
puts "transformation"
puts "element"
puts "shell element"
puts "SOLID element"
element stdBrick 1 381 378 429 480 380 376 428 463 100
element stdBrick 2 380 376 428 463 379 374 427 446 100
element stdBrick 3 378 372 426 429 376 370 425 428 100
element stdBrick 4 376 370 425 428 374 368 424 427 100
element stdBrick 5 372 324 384 426 370 322 383 425 100
element stdBrick 6 370 322 383 425 368 320 382 424 100
element stdBrick 7 324 318 366 384 322 316 352 383 100
element stdBrick 8 322 316 352 383 320 314 338 382 100
element stdBrick 9 318 270 312 366 316 268 311 352 100
element stdBrick 10 316 268 311 352 314 266 310 338 100
element stdBrick 11 270 263 264 312 268 247 248 311 100
element stdBrick 12 268 247 248 311 266 231 232 310 100
element stdBrick 13 263 216 171 264 247 214 170 248 100
element stdBrick 14 247 214 170 248 231 212 169 232 100
element stdBrick 15 216 168 156 171 214 166 142 170 100
element stdBrick 16 214 166 142 170 212 164 128 169 100
element stdBrick 17 168 162 99 156 166 160 98 142 100
element stdBrick 18 166 160 98 142 164 158 97 128 100
element stdBrick 19 162 114 57 99 160 112 56 98 100
element stdBrick 20 160 112 56 98 158 110 55 97 100
# ... 228 like lines cut
puts "recorder"
recorder Node -file node0.out -time -nodeRange 1 100 -dof 1 2 3 disp
recorder Node -file node1.out -time -nodeRange 101 200 -dof 1 2 3 disp
recorder Node -file node2.out -time -nodeRange 201 300 -dof 1 2 3 disp
recorder Node -file node3.out -time -nodeRange 301 400 -dof 1 2 3 disp
recorder Node -file node4.out -time -nodeRange 401 480 -dof 1 2 3 disp
recorder Node -file snode102.out -time -node 102 -dof 1 2 3 disp
puts "loading"
## Load Case = PUSH
pattern Plain 1 Linear {
load 100 0.000E+000 0.000E+000 -1.000E+005 0.000E+000 0.000E+000 0.000E+000
load 101 0.000E+000 0.000E+000 -1.000E+005 0.000E+000 0.000E+000 0.000E+000
load 102 0.000E+000 0.000E+000 -1.000E+005 0.000E+000 0.000E+000 0.000E+000
}
puts "analysis"
constraints Plain
numberer Plain
system BandGeneral
test EnergyIncr 1.0e-6 200
algorithm Newton
integrator LoadControl 1
analysis Static
analyze 1