File C:\Users\dino\Desktop\sap2000\model1.s2k was saved on 5/6/14 at 15:46:29
 
TABLE:  "PROGRAM CONTROL"
   ProgramName=SAP2000   Version=14.0.0   ProgLevel=Advanced   LicenseOS=Yes   LicenseSC=Yes   LicenseBR=Yes   LicenseHT=No   CurrUnits="N, mm, C"   SteelCode=AISC-LRFD93   ConcCode="ACI 318-05/IBC2003"   AlumCode="AA-ASD 2000" _
        ColdCode=AISI-ASD96   BridgeCode="AASHTO LRFD 2007"   RegenHinge=Yes
 
TABLE:  "ACTIVE DEGREES OF FREEDOM"
   UX=Yes   UY=Yes   UZ=Yes   RX=Yes   RY=Yes   RZ=Yes
 
TABLE:  "ANALYSIS OPTIONS"
   Solver=Advanced   SolverProc=Auto   Force32Bit=No   StiffCase=None   GeomMod=No
 
TABLE:  "COORDINATE SYSTEMS"
   Name=GLOBAL   Type=Cartesian   X=0   Y=0   Z=0   AboutZ=0   AboutY=0   AboutX=0
 
TABLE:  "GRID LINES"
   CoordSys=GLOBAL   AxisDir=X   GridID=A   XRYZCoord=0   LineType=Primary   LineColor=Gray8Dark   Visible=Yes   BubbleLoc=End   AllVisible=Yes   BubbleSize=50
   CoordSys=GLOBAL   AxisDir=X   GridID=B   XRYZCoord=800   LineType=Primary   LineColor=Gray8Dark   Visible=Yes   BubbleLoc=End
   CoordSys=GLOBAL   AxisDir=X   GridID=C   XRYZCoord=1050   LineType=Primary   LineColor=Gray8Dark   Visible=Yes   BubbleLoc=End
   CoordSys=GLOBAL   AxisDir=Y   GridID=1   XRYZCoord=0   LineType=Primary   LineColor=Gray8Dark   Visible=Yes   BubbleLoc=Start
   CoordSys=GLOBAL   AxisDir=Z   GridID=Z1   XRYZCoord=0   LineType=Primary   LineColor=Gray8Dark   Visible=Yes   BubbleLoc=End
   CoordSys=GLOBAL   AxisDir=Z   GridID=Z2   XRYZCoord=500   LineType=Primary   LineColor=Gray8Dark   Visible=Yes   BubbleLoc=End
 
TABLE:  "MATERIAL PROPERTIES 01 - GENERAL"
   Material=4000Psi   Type=Concrete   SymType=Isotropic   TempDepend=No   Color=Yellow   Notes="Normalweight f'c = 4 ksi added 2014/5/6 14:52:54"
   Material=A992Fy50   Type=Steel   SymType=Isotropic   TempDepend=No   Color=Magenta   Notes="ASTM A992 Fy=50 ksi added 2014/5/6 14:52:54"
   Material=STEEL   Type=Steel   SymType=Isotropic   TempDepend=No   Color=Blue   Notes="ASTM A36 added 2014/5/6 15:11:08"
 
TABLE:  "MATERIAL PROPERTIES 02 - BASIC MECHANICAL PROPERTIES"
   Material=4000Psi   UnitWeight=2.3563121614979E-05   UnitMass=2.40276960611018E-09   E1=24855.5782847654   G12=10356.4909519856   U12=.2   A1=.0000099
   Material=A992Fy50   UnitWeight=7.69728639422648E-05   UnitMass=7.84904737995992E-09   E1=199947.978795958   G12=76903.068767676   U12=.3   A1=.0000117
   Material=STEEL   UnitWeight=7.69728639422648E-05   UnitMass=7.84904737995992E-09   E1=205000   G12=78846.1538461538   U12=.3   A1=.0000117
 
TABLE:  "MATERIAL PROPERTIES 03A - STEEL DATA"
   Material=A992Fy50   Fy=344.737894475789   Fu=448.159262818526   EffFy=379.211683923368   EffFu=492.975189100378   SSCurveOpt=Simple   SSHysType=Kinematic   SHard=.015   SMax=.11   SRup=.17   FinalSlope=-.1
   Material=STEEL   Fy=248.211284022568   Fu=399.895957591915   EffFy=372.316926033852   EffFu=439.885553351107   SSCurveOpt=Simple   SSHysType=Kinematic   SHard=.02   SMax=.14   SRup=.2   FinalSlope=-.1
 
TABLE:  "MATERIAL PROPERTIES 03B - CONCRETE DATA"
   Material=4000Psi   Fc=27.5790315580631   LtWtConc=No   SSCurveOpt=Mander   SSHysType=Takeda   SFc=2.21914221766202E-03   SCap=.005   FinalSlope=-.1   FAngle=0   DAngle=0
 
TABLE:  "MATERIAL PROPERTIES 06 - DAMPING PARAMETERS"
   Material=4000Psi   ModalRatio=0   VisMass=0   VisStiff=0   HysMass=0   HysStiff=0
   Material=A992Fy50   ModalRatio=0   VisMass=0   VisStiff=0   HysMass=0   HysStiff=0
   Material=STEEL   ModalRatio=0   VisMass=0   VisStiff=0   HysMass=0   HysStiff=0
 
TABLE:  "FRAME SECTION PROPERTIES 01 - GENERAL"
   SectionName=FSEC1   Material=A992Fy50   Shape="I/Wide Flange"   t3=304.8   t2=127   tf=9.652   tw=6.35   t2b=127   tfb=9.652   Area=4264.5076   TorsConst=96511.7678053953   I33=65724174.702235   I22=3301257.17301008   AS2=1935.48 _
        AS3=2043.00666666667   S33=431260.98885981   S22=51988.3019371667   Z33=491187.4950424   Z22=80716.532115   R33=124.144683132414   R22=27.8230817990979   ConcCol=No   ConcBeam=No   Color=Magenta   TotalWt=0   TotalMass=0 _
        FromFile=No   AMod=1   A2Mod=1   A3Mod=1   JMod=1   I2Mod=1   I3Mod=1   MMod=1   WMod=1   Notes="Added 2014/5/6 14:53:49"
 
TABLE:  "AREA SECTION PROPERTIES"
   Section=ASEC1   Material=A992Fy50   MatAngle=0   AreaType=Shell   Type=Shell-Thin   DrillDOF=Yes   Thickness=250   BendThick=250   Color=Cyan   TotalWt=8220.24002676549   TotalMass=.838231165376939   F11Mod=1   F22Mod=1   F12Mod=1 _
        M11Mod=1   M22Mod=1   M12Mod=1   V13Mod=1   V23Mod=1   MMod=1   WMod=1   Notes="Added 2014/5/6 14:53:48"
 
TABLE:  "AREA SECTION PROPERTY DESIGN PARAMETERS"
   Section=ASEC1   RebarMat=None   RebarOpt=Default
 
TABLE:  "SOLID PROPERTY DEFINITIONS"
   SolidProp=SOLID1   Material=STEEL   MatAngleA=0   MatAngleB=0   MatAngleC=0   InComp=Yes   Color=Yellow   Notes="Added 2014/5/6 15:05:39"   TotalWt=4932.14401605928   TotalMass=.502938699226167
 
TABLE:  "REBAR SIZES"
   RebarID=#2   Area=32.258   Diameter=6.35
   RebarID=#3   Area=70.9675996154547   Diameter=9.525
   RebarID=#4   Area=129.032001922727   Diameter=12.7
   RebarID=#5   Area=199.999601538181   Diameter=15.875
   RebarID=#6   Area=283.870398461819   Diameter=19.05
   RebarID=#7   Area=387.096015381813   Diameter=22.225
   RebarID=#8   Area=509.676413843632   Diameter=25.4
   RebarID=#9   Area=645.16   Diameter=28.6512005329132
   RebarID=#10   Area=819.35318769455   Diameter=32.2579995155334
   RebarID=#11   Area=1006.44956308365   Diameter=35.8139991521835
   RebarID=#14   Area=1451.61   Diameter=43.0021989583969
   RebarID=#18   Area=2580.64   Diameter=57.3277992248535
   RebarID=10M   Area=100.000004162606   Diameter=11.3000003604438
   RebarID=15M   Area=200.000008325212   Diameter=16.0000002402959
   RebarID=20M   Area=300.000012487818   Diameter=19.5000002928606
   RebarID=25M   Area=500.000020813031   Diameter=25.2000011414055
   RebarID=30M   Area=700.000029138243   Diameter=29.9000000675832
   RebarID=35M   Area=1000.00004162606   Diameter=35.7000012990997
   RebarID=45M   Area=1500.00006243909   Diameter=43.7000014192476
   RebarID=55M   Area=2500.00010406515   Diameter=56.400002372922
   RebarID=6d   Area=28.3000004150781   Diameter=6.00000009011096
   RebarID=8d   Area=50.3000013308514   Diameter=8.00000012014795
   RebarID=10d   Area=78.5000032676458   Diameter=10.0000001501849
   RebarID=12d   Area=113.000004703745   Diameter=12.0000001802219
   RebarID=14d   Area=154.000006410413   Diameter=14.0000002102589
   RebarID=16d   Area=201.000008366838   Diameter=16.0000002402959
   RebarID=20d   Area=314.000013070583   Diameter=20.0000003003699
   RebarID=25d   Area=491.000020438396   Diameter=25.0000003754623
   RebarID=26d   Area=531.000022103439   Diameter=26.0000003904808
   RebarID=28d   Area=616.000025641654   Diameter=28.0000004205178
   RebarID=N12   Area=113.000004703745   Diameter=12.0000001802219
   RebarID=N16   Area=201.000008366838   Diameter=16.0000002402959
   RebarID=N20   Area=314.000013070583   Diameter=20.0000003003699
   RebarID=N24   Area=452.00001881498   Diameter=24.0000003604438
   RebarID=N28   Area=616.000025641654   Diameter=28.0000004205178
   RebarID=N32   Area=804.000033467353   Diameter=32.0000004805918
   RebarID=N36   Area=1020.00004245858   Diameter=36.0000005406658
 
TABLE:  "LOAD PATTERN DEFINITIONS"
   LoadPat=DEAD   DesignType=DEAD   SelfWtMult=0
 
TABLE:  "AUTO WAVE 3 - WAVE CHARACTERISTICS - GENERAL"
   WaveChar=Default   WaveType="From Theory"   KinFactor=1   SWaterDepth=45000   WaveHeight=18000   WavePeriod=12   WaveTheory=Linear
 
TABLE:  "FUNCTION - RESPONSE SPECTRUM - USER"
   Name=UNIFRS   Period=0   Accel=1   FuncDamp=.05
   Name=UNIFRS   Period=1   Accel=1
 
TABLE:  "FUNCTION - TIME HISTORY - USER"
   Name=RAMPTH   Time=0   Value=0
   Name=RAMPTH   Time=1   Value=1
   Name=RAMPTH   Time=4   Value=1
   Name=UNIFTH   Time=0   Value=1
   Name=UNIFTH   Time=1   Value=1
 
TABLE:  "FUNCTION - POWER SPECTRAL DENSITY - USER"
   Name=UNIFPSD   Frequency=0   Value=1
   Name=UNIFPSD   Frequency=1   Value=1
 
TABLE:  "FUNCTION - STEADY STATE - USER"
   Name=UNIFSS   Frequency=0   Value=1
   Name=UNIFSS   Frequency=1   Value=1
 
TABLE:  "GROUPS 1 - DEFINITIONS"
   GroupName=ALL   Selection=Yes   SectionCut=Yes   Steel=Yes   Concrete=Yes   Aluminum=Yes   ColdFormed=Yes   Stage=Yes   Bridge=Yes   AutoSeismic=No   AutoWind=No   SelDesSteel=No   SelDesAlum=No   SelDesCold=No   MassWeight=Yes   Color=Red
 
TABLE:  "GROUPS 3 - MASSES AND WEIGHTS"
   GroupName=ALL   SelfMass=1.34116986460309   SelfWeight=13152.3840428249   TotalMassX=1.34116986460309   TotalMassY=1.34116986460309   TotalMassZ=1.34116986460309
 
TABLE:  "JOINT PATTERN DEFINITIONS"
   Pattern=Default
 
TABLE:  "MASSES 1 - MASS SOURCE"
   MassFrom=Elements
 
TABLE:  "FUNCTION - PLOT FUNCTIONS"
   PlotFunc="Input Energy"   Type=Energy   Component=Input   Mode=All
 
TABLE:  "LOAD CASE DEFINITIONS"
   Case=DEAD   Type=LinStatic   InitialCond=Zero   DesTypeOpt="Prog Det"   DesignType=DEAD   AutoType=None   RunCase=Yes   CaseStatus="Not Run"
   Case=MODAL   Type=LinModal   InitialCond=Zero   DesTypeOpt="Prog Det"   DesignType=OTHER   AutoType=None   RunCase=Yes   CaseStatus="Not Run"
 
TABLE:  "CASE - STATIC 1 - LOAD ASSIGNMENTS"
   Case=DEAD   LoadType="Load pattern"   LoadName=DEAD   LoadSF=1
 
TABLE:  "CASE - MODAL 1 - GENERAL"
   Case=MODAL   ModeType=Eigen   MaxNumModes=12   MinNumModes=1   EigenShift=0   EigenCutoff=0   EigenTol=.000000001   AutoShift=Yes
 
TABLE:  "BRIDGE PREFERENCES"
   NorthAngle=90   MaxDiscCurv=1
 
TABLE:  "BRIDGE DESIGN PREFERENCES - AASHTOLRFD07"
   HingeOpt="Auto: AASHTO/Caltrans Hinge"
 
TABLE:  "JOINT COORDINATES"
   Joint=1   CoordSys=GLOBAL   CoordType=Cartesian   XorR=0   Y=-75   Z=0   SpecialJt=No   GlobalX=0   GlobalY=-75   GlobalZ=0
   Joint=2   CoordSys=GLOBAL   CoordType=Cartesian   XorR=50   Y=-75   Z=0   SpecialJt=No   GlobalX=50   GlobalY=-75   GlobalZ=0
   Joint=3   CoordSys=GLOBAL   CoordType=Cartesian   XorR=100   Y=-75   Z=0   SpecialJt=No   GlobalX=100   GlobalY=-75   GlobalZ=0
   Joint=4   CoordSys=GLOBAL   CoordType=Cartesian   XorR=150   Y=-75   Z=0   SpecialJt=No   GlobalX=150   GlobalY=-75   GlobalZ=0
   Joint=5   CoordSys=GLOBAL   CoordType=Cartesian   XorR=200   Y=-75   Z=0   SpecialJt=No   GlobalX=200   GlobalY=-75   GlobalZ=0
   Joint=6   CoordSys=GLOBAL   CoordType=Cartesian   XorR=250   Y=-75   Z=0   SpecialJt=No   GlobalX=250   GlobalY=-75   GlobalZ=0
   Joint=7   CoordSys=GLOBAL   CoordType=Cartesian   XorR=300   Y=-75   Z=0   SpecialJt=No   GlobalX=300   GlobalY=-75   GlobalZ=0
   Joint=8   CoordSys=GLOBAL   CoordType=Cartesian   XorR=350   Y=-75   Z=0   SpecialJt=No   GlobalX=350   GlobalY=-75   GlobalZ=0
   Joint=9   CoordSys=GLOBAL   CoordType=Cartesian   XorR=400   Y=-75   Z=0   SpecialJt=No   GlobalX=400   GlobalY=-75   GlobalZ=0
   Joint=10   CoordSys=GLOBAL   CoordType=Cartesian   XorR=450   Y=-75   Z=0   SpecialJt=No   GlobalX=450   GlobalY=-75   GlobalZ=0
   Joint=11   CoordSys=GLOBAL   CoordType=Cartesian   XorR=500   Y=-75   Z=0   SpecialJt=No   GlobalX=500   GlobalY=-75   GlobalZ=0
   Joint=12   CoordSys=GLOBAL   CoordType=Cartesian   XorR=550   Y=-75   Z=0   SpecialJt=No   GlobalX=550   GlobalY=-75   GlobalZ=0
   Joint=13   CoordSys=GLOBAL   CoordType=Cartesian   XorR=600   Y=-75   Z=0   SpecialJt=No   GlobalX=600   GlobalY=-75   GlobalZ=0
   Joint=14   CoordSys=GLOBAL   CoordType=Cartesian   XorR=650   Y=-75   Z=0   SpecialJt=No   GlobalX=650   GlobalY=-75   GlobalZ=0
   Joint=15   CoordSys=GLOBAL   CoordType=Cartesian   XorR=700   Y=-75   Z=0   SpecialJt=No   GlobalX=700   GlobalY=-75   GlobalZ=0
   Joint=16   CoordSys=GLOBAL   CoordType=Cartesian   XorR=750   Y=-75   Z=0   SpecialJt=No   GlobalX=750   GlobalY=-75   GlobalZ=0
   Joint=17   CoordSys=GLOBAL   CoordType=Cartesian   XorR=800   Y=-75   Z=0   SpecialJt=No   GlobalX=800   GlobalY=-75   GlobalZ=0
   Joint=18   CoordSys=GLOBAL   CoordType=Cartesian   XorR=0   Y=0   Z=0   SpecialJt=No   GlobalX=0   GlobalY=0   GlobalZ=0
   Joint=19   CoordSys=GLOBAL   CoordType=Cartesian   XorR=50   Y=0   Z=0   SpecialJt=No   GlobalX=50   GlobalY=0   GlobalZ=0
   Joint=20   CoordSys=GLOBAL   CoordType=Cartesian   XorR=100   Y=0   Z=0   SpecialJt=No   GlobalX=100   GlobalY=0   GlobalZ=0
# ... 359 like lines cut
   Joint=380   CoordSys=GLOBAL   CoordType=Cartesian   XorR=800   Y=0   Z=400   SpecialJt=Yes   GlobalX=800   GlobalY=0   GlobalZ=400
   Joint=381   CoordSys=GLOBAL   CoordType=Cartesian   XorR=800   Y=75   Z=400   SpecialJt=No   GlobalX=800   GlobalY=75   GlobalZ=400
   Joint=382   CoordSys=GLOBAL   CoordType=Cartesian   XorR=976.776695296637   Y=-75   Z=426.776695296637   SpecialJt=No   GlobalX=976.776695296637   GlobalY=-75   GlobalZ=426.776695296637
   Joint=383   CoordSys=GLOBAL   CoordType=Cartesian   XorR=976.776695296637   Y=0   Z=426.776695296637   SpecialJt=No   GlobalX=976.776695296637   GlobalY=0   GlobalZ=426.776695296637
   Joint=384   CoordSys=GLOBAL   CoordType=Cartesian   XorR=976.776695296637   Y=75   Z=426.776695296637   SpecialJt=No   GlobalX=976.776695296637   GlobalY=75   GlobalZ=426.776695296637
   Joint=385   CoordSys=GLOBAL   CoordType=Cartesian   XorR=0   Y=-75   Z=437.5   SpecialJt=No   GlobalX=0   GlobalY=-75   GlobalZ=437.5
   Joint=386   CoordSys=GLOBAL   CoordType=Cartesian   XorR=50   Y=-75   Z=437.5   SpecialJt=No   GlobalX=50   GlobalY=-75   GlobalZ=437.5
   Joint=387   CoordSys=GLOBAL   CoordType=Cartesian   XorR=100   Y=-75   Z=437.5   SpecialJt=No   GlobalX=100   GlobalY=-75   GlobalZ=437.5
   Joint=388   CoordSys=GLOBAL   CoordType=Cartesian   XorR=150   Y=-75   Z=437.5   SpecialJt=No   GlobalX=150   GlobalY=-75   GlobalZ=437.5
   Joint=389   CoordSys=GLOBAL   CoordType=Cartesian   XorR=200   Y=-75   Z=437.5   SpecialJt=No   GlobalX=200   GlobalY=-75   GlobalZ=437.5
   Joint=390   CoordSys=GLOBAL   CoordType=Cartesian   XorR=250   Y=-75   Z=437.5   SpecialJt=No   GlobalX=250   GlobalY=-75   GlobalZ=437.5
   Joint=391   CoordSys=GLOBAL   CoordType=Cartesian   XorR=300   Y=-75   Z=437.5   SpecialJt=No   GlobalX=300   GlobalY=-75   GlobalZ=437.5
   Joint=392   CoordSys=GLOBAL   CoordType=Cartesian   XorR=350   Y=-75   Z=437.5   SpecialJt=No   GlobalX=350   GlobalY=-75   GlobalZ=437.5
   Joint=393   CoordSys=GLOBAL   CoordType=Cartesian   XorR=400   Y=-75   Z=437.5   SpecialJt=No   GlobalX=400   GlobalY=-75   GlobalZ=437.5
   Joint=394   CoordSys=GLOBAL   CoordType=Cartesian   XorR=450   Y=-75   Z=437.5   SpecialJt=No   GlobalX=450   GlobalY=-75   GlobalZ=437.5
   Joint=395   CoordSys=GLOBAL   CoordType=Cartesian   XorR=500   Y=-75   Z=437.5   SpecialJt=No   GlobalX=500   GlobalY=-75   GlobalZ=437.5
   Joint=396   CoordSys=GLOBAL   CoordType=Cartesian   XorR=550   Y=-75   Z=437.5   SpecialJt=No   GlobalX=550   GlobalY=-75   GlobalZ=437.5
   Joint=397   CoordSys=GLOBAL   CoordType=Cartesian   XorR=600   Y=-75   Z=437.5   SpecialJt=No   GlobalX=600   GlobalY=-75   GlobalZ=437.5
   Joint=398   CoordSys=GLOBAL   CoordType=Cartesian   XorR=0   Y=0   Z=437.5   SpecialJt=No   GlobalX=0   GlobalY=0   GlobalZ=437.5
   Joint=399   CoordSys=GLOBAL   CoordType=Cartesian   XorR=50   Y=0   Z=437.5   SpecialJt=No   GlobalX=50   GlobalY=0   GlobalZ=437.5
   Joint=400   CoordSys=GLOBAL   CoordType=Cartesian   XorR=100   Y=0   Z=437.5   SpecialJt=No   GlobalX=100   GlobalY=0   GlobalZ=437.5
# ... 80 like lines cut
 
TABLE:  "CONNECTIVITY - AREA"
   Area=1   NumJoints=3   Joint1=83   Joint2=30   Joint3=31   Perimeter=192.539052967911   AreaArea=1562.5   Volume=390625   CentroidX=616.666666666667   CentroidY=0   CentroidZ=20.8333333333334
   Area=2   NumJoints=4   Joint1=18   Joint2=19   Joint3=72   Joint4=71   Perimeter=225   AreaArea=3125   Volume=781250   CentroidX=25   CentroidY=0   CentroidZ=31.25
   Area=3   NumJoints=4   Joint1=19   Joint2=20   Joint3=73   Joint4=72   Perimeter=225   AreaArea=3125   Volume=781250   CentroidX=75   CentroidY=0   CentroidZ=31.25
   Area=4   NumJoints=4   Joint1=20   Joint2=21   Joint3=74   Joint4=73   Perimeter=225   AreaArea=3125   Volume=781250   CentroidX=125   CentroidY=0   CentroidZ=31.25
   Area=5   NumJoints=4   Joint1=21   Joint2=22   Joint3=75   Joint4=74   Perimeter=225   AreaArea=3125   Volume=781250   CentroidX=175   CentroidY=0   CentroidZ=31.25
   Area=6   NumJoints=4   Joint1=22   Joint2=23   Joint3=76   Joint4=75   Perimeter=225   AreaArea=3125   Volume=781250   CentroidX=225   CentroidY=0   CentroidZ=31.25
   Area=7   NumJoints=4   Joint1=23   Joint2=24   Joint3=77   Joint4=76   Perimeter=225   AreaArea=3125   Volume=781250   CentroidX=275   CentroidY=0   CentroidZ=31.25
   Area=8   NumJoints=4   Joint1=24   Joint2=25   Joint3=78   Joint4=77   Perimeter=225   AreaArea=3125   Volume=781250   CentroidX=325   CentroidY=0   CentroidZ=31.25
   Area=9   NumJoints=4   Joint1=25   Joint2=26   Joint3=79   Joint4=78   Perimeter=225   AreaArea=3125   Volume=781250   CentroidX=375   CentroidY=0   CentroidZ=31.25
   Area=10   NumJoints=4   Joint1=26   Joint2=27   Joint3=80   Joint4=79   Perimeter=225   AreaArea=3125   Volume=781250   CentroidX=425   CentroidY=0   CentroidZ=31.25
   Area=11   NumJoints=4   Joint1=27   Joint2=28   Joint3=81   Joint4=80   Perimeter=225   AreaArea=3125   Volume=781250   CentroidX=475   CentroidY=0   CentroidZ=31.25
   Area=12   NumJoints=4   Joint1=28   Joint2=29   Joint3=82   Joint4=81   Perimeter=225   AreaArea=3125   Volume=781250   CentroidX=525   CentroidY=0   CentroidZ=31.25
   Area=13   NumJoints=4   Joint1=29   Joint2=30   Joint3=83   Joint4=82   Perimeter=225   AreaArea=3125   Volume=781250   CentroidX=575   CentroidY=0   CentroidZ=31.25
   Area=14   NumJoints=4   Joint1=101   Joint2=105   Joint3=33   Joint4=34   Perimeter=294.861582064837   AreaArea=4568.9209896849   Volume=1142230.24742122   CentroidX=777.473348490613   CentroidY=0   CentroidZ=49.1989768436913
   Area=15   NumJoints=4   Joint1=106   Joint2=101   Joint3=34   Joint4=53   Perimeter=304.420953776042   AreaArea=5176.38090205043   Volume=1294095.22551261   CentroidX=826.421110854216   CentroidY=0   CentroidZ=49.3117385663242
   Area=16   NumJoints=4   Joint1=111   Joint2=32   Joint3=33   Joint4=105   Perimeter=317.532257925725   AreaArea=4987.45996712509   Volume=1246864.99178127   CentroidX=733.116356422934   CentroidY=0   CentroidZ=53.9771301737987
   Area=17   NumJoints=4   Joint1=159   Joint2=31   Joint3=32   Joint4=111   Perimeter=362.318354636553   AreaArea=5761.77712987905   Volume=1440444.28246976   CentroidX=690.698308006623   CentroidY=0   CentroidZ=63.0092019570722
   Area=18   NumJoints=4   Joint1=112   Joint2=106   Joint3=53   Joint4=56   Perimeter=304.420953776041   AreaArea=5176.38090205041   Volume=1294095.2255126   CentroidX=877.462777520882   CentroidY=0   CentroidZ=62.9883119299961
   Area=19   NumJoints=3   Joint1=165   Joint2=141   Joint3=83   Perimeter=281.152385601872   AreaArea=2190.50591976044   Volume=547626.479940111   CentroidX=623.365396477445   CentroidY=0   CentroidZ=120.833333333333
   Area=20   NumJoints=4   Joint1=160   Joint2=112   Joint3=56   Joint4=98   Perimeter=304.420953776041   AreaArea=5176.38090205042   Volume=1294095.2255126   CentroidX=923.225483912793   CentroidY=0   CentroidZ=89.4094227842119
   Area=21   NumJoints=4   Joint1=71   Joint2=72   Joint3=130   Joint4=129   Perimeter=225   AreaArea=3125   Volume=781250   CentroidX=25   CentroidY=0   CentroidZ=93.75
   Area=22   NumJoints=4   Joint1=72   Joint2=73   Joint3=131   Joint4=130   Perimeter=225   AreaArea=3125   Volume=781250   CentroidX=75   CentroidY=0   CentroidZ=93.75
   Area=23   NumJoints=4   Joint1=73   Joint2=74   Joint3=132   Joint4=131   Perimeter=225   AreaArea=3125   Volume=781250   CentroidX=125   CentroidY=0   CentroidZ=93.75
   Area=24   NumJoints=4   Joint1=74   Joint2=75   Joint3=133   Joint4=132   Perimeter=225   AreaArea=3125   Volume=781250   CentroidX=175   CentroidY=0   CentroidZ=93.75
   Area=25   NumJoints=4   Joint1=75   Joint2=76   Joint3=134   Joint4=133   Perimeter=225   AreaArea=3125   Volume=781250   CentroidX=225   CentroidY=0   CentroidZ=93.75
   Area=26   NumJoints=4   Joint1=76   Joint2=77   Joint3=135   Joint4=134   Perimeter=225   AreaArea=3125   Volume=781250   CentroidX=275   CentroidY=0   CentroidZ=93.75
   Area=27   NumJoints=4   Joint1=77   Joint2=78   Joint3=136   Joint4=135   Perimeter=225   AreaArea=3125   Volume=781250   CentroidX=325   CentroidY=0   CentroidZ=93.75
   Area=28   NumJoints=4   Joint1=78   Joint2=79   Joint3=137   Joint4=136   Perimeter=225   AreaArea=3125   Volume=781250   CentroidX=375   CentroidY=0   CentroidZ=93.75
   Area=29   NumJoints=4   Joint1=79   Joint2=80   Joint3=138   Joint4=137   Perimeter=225   AreaArea=3125   Volume=781250   CentroidX=425   CentroidY=0   CentroidZ=93.75
   Area=30   NumJoints=4   Joint1=80   Joint2=81   Joint3=139   Joint4=138   Perimeter=225   AreaArea=3125   Volume=781250   CentroidX=475   CentroidY=0   CentroidZ=93.75
   Area=31   NumJoints=4   Joint1=81   Joint2=82   Joint3=140   Joint4=139   Perimeter=225   AreaArea=3125   Volume=781250   CentroidX=525   CentroidY=0   CentroidZ=93.75
   Area=32   NumJoints=4   Joint1=82   Joint2=83   Joint3=141   Joint4=140   Perimeter=225   AreaArea=3125   Volume=781250   CentroidX=575   CentroidY=0   CentroidZ=93.75
   Area=33   NumJoints=4   Joint1=165   Joint2=83   Joint3=31   Joint4=159   Perimeter=402.237573962453   AreaArea=7400.96712441621   Volume=1850241.78110405   CentroidX=650.17713575509   CentroidY=0   CentroidZ=87.9617123350262
   Area=34   NumJoints=4   Joint1=166   Joint2=160   Joint3=98   Joint4=142   Perimeter=304.420953776041   AreaArea=5176.38090205042   Volume=1294095.2255126   CentroidX=960.590577215788   CentroidY=0   CentroidZ=126.774516087207
   Area=35   NumJoints=4   Joint1=129   Joint2=130   Joint3=186   Joint4=185   Perimeter=225   AreaArea=3125   Volume=781250   CentroidX=25   CentroidY=0   CentroidZ=156.25
   Area=36   NumJoints=4   Joint1=130   Joint2=131   Joint3=187   Joint4=186   Perimeter=225   AreaArea=3125   Volume=781250   CentroidX=75   CentroidY=0   CentroidZ=156.25
   Area=37   NumJoints=4   Joint1=131   Joint2=132   Joint3=188   Joint4=187   Perimeter=225   AreaArea=3125   Volume=781250   CentroidX=125   CentroidY=0   CentroidZ=156.25
   Area=38   NumJoints=4   Joint1=132   Joint2=133   Joint3=189   Joint4=188   Perimeter=225   AreaArea=3125   Volume=781250   CentroidX=175   CentroidY=0   CentroidZ=156.25
   Area=39   NumJoints=4   Joint1=133   Joint2=134   Joint3=190   Joint4=189   Perimeter=225   AreaArea=3125   Volume=781250   CentroidX=225   CentroidY=0   CentroidZ=156.25
# ... 37 like lines cut
   Area=77   NumJoints=3   Joint1=410   Joint2=351   Joint3=315   Perimeter=281.152385601872   AreaArea=2190.50591976045   Volume=547626.479940111   CentroidX=623.365396477445   CentroidY=0   CentroidZ=379.166666666667
   Area=78   NumJoints=4   Joint1=351   Joint2=296   Joint3=267   Joint4=315   Perimeter=247.741426081378   AreaArea=3364.78921630973   Volume=841197.304077431   CentroidX=629.776503842768   CentroidY=0   CentroidZ=327.47496590532
   Area=79   NumJoints=4   Joint1=316   Joint2=268   Joint3=311   Joint4=352   Perimeter=304.420953776041   AreaArea=5176.38090205041   Volume=1294095.2255126   CentroidX=987.011688070004   CentroidY=0   CentroidZ=327.462777520883
   Area=80   NumJoints=4   Joint1=284   Joint2=285   Joint3=340   Joint4=339   Perimeter=225   AreaArea=3125   Volume=781250   CentroidX=25   CentroidY=0   CentroidZ=343.75
   Area=81   NumJoints=4   Joint1=285   Joint2=286   Joint3=341   Joint4=340   Perimeter=225   AreaArea=3125   Volume=781249.999999999   CentroidX=75   CentroidY=0   CentroidZ=343.75
   Area=82   NumJoints=4   Joint1=286   Joint2=287   Joint3=342   Joint4=341   Perimeter=225   AreaArea=3125   Volume=781250   CentroidX=125   CentroidY=0   CentroidZ=343.75
   Area=83   NumJoints=4   Joint1=287   Joint2=288   Joint3=343   Joint4=342   Perimeter=225   AreaArea=3125   Volume=781250   CentroidX=175   CentroidY=0   CentroidZ=343.75
   Area=84   NumJoints=4   Joint1=288   Joint2=289   Joint3=344   Joint4=343   Perimeter=225   AreaArea=3125   Volume=781249.999999999   CentroidX=225   CentroidY=0   CentroidZ=343.75
   Area=85   NumJoints=4   Joint1=289   Joint2=290   Joint3=345   Joint4=344   Perimeter=225   AreaArea=3125   Volume=781250   CentroidX=275   CentroidY=0   CentroidZ=343.75
   Area=86   NumJoints=4   Joint1=290   Joint2=291   Joint3=346   Joint4=345   Perimeter=225   AreaArea=3125   Volume=781250   CentroidX=325   CentroidY=0   CentroidZ=343.75
   Area=87   NumJoints=4   Joint1=291   Joint2=292   Joint3=347   Joint4=346   Perimeter=225   AreaArea=3125   Volume=781250   CentroidX=375   CentroidY=0   CentroidZ=343.75
   Area=88   NumJoints=4   Joint1=292   Joint2=293   Joint3=348   Joint4=347   Perimeter=225   AreaArea=3125   Volume=781250   CentroidX=425   CentroidY=0   CentroidZ=343.75
   Area=89   NumJoints=4   Joint1=293   Joint2=294   Joint3=349   Joint4=348   Perimeter=225   AreaArea=3125   Volume=781250   CentroidX=475   CentroidY=0   CentroidZ=343.75
   Area=90   NumJoints=4   Joint1=294   Joint2=295   Joint3=350   Joint4=349   Perimeter=225   AreaArea=3125   Volume=781250   CentroidX=525   CentroidY=0   CentroidZ=343.75
   Area=91   NumJoints=4   Joint1=295   Joint2=296   Joint3=351   Joint4=350   Perimeter=225   AreaArea=3125   Volume=781250   CentroidX=575   CentroidY=0   CentroidZ=343.75
   Area=92   NumJoints=3   Joint1=460   Joint2=459   Joint3=410   Perimeter=192.539052967911   AreaArea=1562.5   Volume=390625   CentroidX=616.666666666667   CentroidY=0   CentroidZ=479.166666666667
   Area=93   NumJoints=4   Joint1=322   Joint2=316   Joint3=352   Joint4=383   Perimeter=304.420953776041   AreaArea=5176.38090205042   Volume=1294095.22551261   CentroidX=960.590577215788   CentroidY=0   CentroidZ=373.225483912793
   Area=94   NumJoints=4   Joint1=460   Joint2=410   Joint3=315   Joint4=321   Perimeter=402.237573962453   AreaArea=7400.9671244162   Volume=1850241.78110405   CentroidX=650.17713575509   CentroidY=0   CentroidZ=412.038287664974
   Area=95   NumJoints=4   Joint1=339   Joint2=340   Joint3=399   Joint4=398   Perimeter=225   AreaArea=3125   Volume=781250   CentroidX=25   CentroidY=0   CentroidZ=406.25
   Area=96   NumJoints=4   Joint1=340   Joint2=341   Joint3=400   Joint4=399   Perimeter=225   AreaArea=3125   Volume=781249.999999999   CentroidX=75   CentroidY=0   CentroidZ=406.25
   Area=97   NumJoints=4   Joint1=341   Joint2=342   Joint3=401   Joint4=400   Perimeter=225   AreaArea=3125   Volume=781250   CentroidX=125   CentroidY=0   CentroidZ=406.25
   Area=98   NumJoints=4   Joint1=342   Joint2=343   Joint3=402   Joint4=401   Perimeter=225   AreaArea=3125   Volume=781250   CentroidX=175   CentroidY=0   CentroidZ=406.25
   Area=99   NumJoints=4   Joint1=343   Joint2=344   Joint3=403   Joint4=402   Perimeter=225   AreaArea=3125   Volume=781249.999999999   CentroidX=225   CentroidY=0   CentroidZ=406.25
   Area=100   NumJoints=4   Joint1=344   Joint2=345   Joint3=404   Joint4=403   Perimeter=225   AreaArea=3125   Volume=781250   CentroidX=275   CentroidY=0   CentroidZ=406.25
   Area=101   NumJoints=4   Joint1=345   Joint2=346   Joint3=405   Joint4=404   Perimeter=225   AreaArea=3125   Volume=781250   CentroidX=325   CentroidY=0   CentroidZ=406.25
   Area=102   NumJoints=4   Joint1=346   Joint2=347   Joint3=406   Joint4=405   Perimeter=225   AreaArea=3125   Volume=781250   CentroidX=375   CentroidY=0   CentroidZ=406.25
   Area=103   NumJoints=4   Joint1=347   Joint2=348   Joint3=407   Joint4=406   Perimeter=225   AreaArea=3125   Volume=781250   CentroidX=425   CentroidY=0   CentroidZ=406.25
   Area=104   NumJoints=4   Joint1=348   Joint2=349   Joint3=408   Joint4=407   Perimeter=225   AreaArea=3125   Volume=781250   CentroidX=475   CentroidY=0   CentroidZ=406.25
   Area=105   NumJoints=4   Joint1=349   Joint2=350   Joint3=409   Joint4=408   Perimeter=225   AreaArea=3125   Volume=781250   CentroidX=525   CentroidY=0   CentroidZ=406.25
   Area=106   NumJoints=4   Joint1=350   Joint2=351   Joint3=410   Joint4=409   Perimeter=225   AreaArea=3125   Volume=781250   CentroidX=575   CentroidY=0   CentroidZ=406.25
   Area=107   NumJoints=4   Joint1=370   Joint2=322   Joint3=383   Joint4=425   Perimeter=304.420953776041   AreaArea=5176.38090205041   Volume=1294095.2255126   CentroidX=923.225483912793   CentroidY=0   CentroidZ=410.590577215788
   Area=108   NumJoints=4   Joint1=461   Joint2=460   Joint3=321   Joint4=369   Perimeter=362.318354636553   AreaArea=5761.77712987903   Volume=1440444.28246976   CentroidX=690.698308006623   CentroidY=0   CentroidZ=436.990798042928
   Area=109   NumJoints=4   Joint1=376   Joint2=370   Joint3=425   Joint4=428   Perimeter=304.420953776041   AreaArea=5176.38090205042   Volume=1294095.2255126   CentroidX=877.462777520882   CentroidY=0   CentroidZ=437.011688070004
   Area=110   NumJoints=4   Joint1=462   Joint2=461   Joint3=369   Joint4=375   Perimeter=317.532257925726   AreaArea=4987.4599671251   Volume=1246864.99178127   CentroidX=733.116356422933   CentroidY=0   CentroidZ=446.022869826201
   Area=111   NumJoints=4   Joint1=380   Joint2=376   Joint3=428   Joint4=463   Perimeter=304.420953776041   AreaArea=5176.38090205042   Volume=1294095.2255126   CentroidX=826.421110854216   CentroidY=0   CentroidZ=450.688261433676
   Area=112   NumJoints=4   Joint1=463   Joint2=462   Joint3=375   Joint4=380   Perimeter=294.861582064837   AreaArea=4568.9209896849   Volume=1142230.24742122   CentroidX=777.473348490613   CentroidY=0   CentroidZ=450.801023156309
# ... 12 like lines cut
 
TABLE:  "CONNECTIVITY - SOLID"
   Solid=1   Joint1=381   Joint2=378   Joint3=480   Joint4=429   Joint5=380   Joint6=376   Joint7=463   Joint8=428   Volume=388228.567653781   CentroidX=826.421110854216   CentroidY=37.5   CentroidZ=450.688261433676
   Solid=2   Joint1=380   Joint2=376   Joint3=463   Joint4=428   Joint5=379   Joint6=374   Joint7=446   Joint8=427   Volume=388228.567653781   CentroidX=826.421110854216   CentroidY=-37.5   CentroidZ=450.688261433676
   Solid=3   Joint1=378   Joint2=372   Joint3=429   Joint4=426   Joint5=376   Joint6=370   Joint7=428   Joint8=425   Volume=388228.567653781   CentroidX=877.462777520882   CentroidY=37.5   CentroidZ=437.011688070004
   Solid=4   Joint1=376   Joint2=370   Joint3=428   Joint4=425   Joint5=374   Joint6=368   Joint7=427   Joint8=424   Volume=388228.567653781   CentroidX=877.462777520882   CentroidY=-37.5   CentroidZ=437.011688070004
   Solid=5   Joint1=372   Joint2=324   Joint3=426   Joint4=384   Joint5=370   Joint6=322   Joint7=425   Joint8=383   Volume=388228.567653781   CentroidX=923.225483912793   CentroidY=37.5   CentroidZ=410.590577215788
   Solid=6   Joint1=370   Joint2=322   Joint3=425   Joint4=383   Joint5=368   Joint6=320   Joint7=424   Joint8=382   Volume=388228.567653781   CentroidX=923.225483912793   CentroidY=-37.5   CentroidZ=410.590577215788
   Solid=7   Joint1=324   Joint2=318   Joint3=384   Joint4=366   Joint5=322   Joint6=316   Joint7=383   Joint8=352   Volume=388228.567653782   CentroidX=960.590577215788   CentroidY=37.5   CentroidZ=373.225483912793
   Solid=8   Joint1=322   Joint2=316   Joint3=383   Joint4=352   Joint5=320   Joint6=314   Joint7=382   Joint8=338   Volume=388228.567653782   CentroidX=960.590577215788   CentroidY=-37.5   CentroidZ=373.225483912793
   Solid=9   Joint1=318   Joint2=270   Joint3=366   Joint4=312   Joint5=316   Joint6=268   Joint7=352   Joint8=311   Volume=388228.567653781   CentroidX=987.011688070004   CentroidY=37.5   CentroidZ=327.462777520882
   Solid=10   Joint1=316   Joint2=268   Joint3=352   Joint4=311   Joint5=314   Joint6=266   Joint7=338   Joint8=310   Volume=388228.567653781   CentroidX=987.011688070004   CentroidY=-37.5   CentroidZ=327.462777520882
   Solid=11   Joint1=270   Joint2=263   Joint3=312   Joint4=264   Joint5=268   Joint6=247   Joint7=311   Joint8=248   Volume=388228.567653781   CentroidX=1000.68826143368   CentroidY=37.5   CentroidZ=276.421110854216
   Solid=12   Joint1=268   Joint2=247   Joint3=311   Joint4=248   Joint5=266   Joint6=231   Joint7=310   Joint8=232   Volume=388228.567653781   CentroidX=1000.68826143368   CentroidY=-37.5   CentroidZ=276.421110854216
   Solid=13   Joint1=263   Joint2=216   Joint3=264   Joint4=171   Joint5=247   Joint6=214   Joint7=248   Joint8=170   Volume=388228.567653781   CentroidX=1000.68826143368   CentroidY=37.5   CentroidZ=223.578889145784
   Solid=14   Joint1=247   Joint2=214   Joint3=248   Joint4=170   Joint5=231   Joint6=212   Joint7=232   Joint8=169   Volume=388228.567653781   CentroidX=1000.68826143368   CentroidY=-37.5   CentroidZ=223.578889145784
   Solid=15   Joint1=216   Joint2=168   Joint3=171   Joint4=156   Joint5=214   Joint6=166   Joint7=170   Joint8=142   Volume=388228.567653781   CentroidX=987.011688070004   CentroidY=37.5   CentroidZ=172.537222479118
   Solid=16   Joint1=214   Joint2=166   Joint3=170   Joint4=142   Joint5=212   Joint6=164   Joint7=169   Joint8=128   Volume=388228.567653781   CentroidX=987.011688070004   CentroidY=-37.5   CentroidZ=172.537222479118
   Solid=17   Joint1=168   Joint2=162   Joint3=156   Joint4=99   Joint5=166   Joint6=160   Joint7=142   Joint8=98   Volume=388228.567653781   CentroidX=960.590577215788   CentroidY=37.5   CentroidZ=126.774516087207
   Solid=18   Joint1=166   Joint2=160   Joint3=142   Joint4=98   Joint5=164   Joint6=158   Joint7=128   Joint8=97   Volume=388228.567653781   CentroidX=960.590577215788   CentroidY=-37.5   CentroidZ=126.774516087207
   Solid=19   Joint1=162   Joint2=114   Joint3=99   Joint4=57   Joint5=160   Joint6=112   Joint7=98   Joint8=56   Volume=388228.567653781   CentroidX=923.225483912793   CentroidY=37.5   CentroidZ=89.4094227842119
   Solid=20   Joint1=160   Joint2=112   Joint3=98   Joint4=56   Joint5=158   Joint6=110   Joint7=97   Joint8=55   Volume=388228.567653781   CentroidX=923.225483912793   CentroidY=-37.5   CentroidZ=89.4094227842119
# ... 228 like lines cut
 
TABLE:  "JOINT RESTRAINT ASSIGNMENTS"
   Joint=1   U1=Yes   U2=Yes   U3=Yes   R1=Yes   R2=Yes   R3=Yes
   Joint=18   U1=Yes   U2=Yes   U3=Yes   R1=Yes   R2=Yes   R3=Yes
   Joint=35   U1=Yes   U2=Yes   U3=Yes   R1=Yes   R2=Yes   R3=Yes
   Joint=58   U1=Yes   U2=Yes   U3=Yes   R1=Yes   R2=Yes   R3=Yes
   Joint=71   U1=Yes   U2=Yes   U3=Yes   R1=Yes   R2=Yes   R3=Yes
   Joint=84   U1=Yes   U2=Yes   U3=Yes   R1=Yes   R2=Yes   R3=Yes
   Joint=115   U1=Yes   U2=Yes   U3=Yes   R1=Yes   R2=Yes   R3=Yes
   Joint=129   U1=Yes   U2=Yes   U3=Yes   R1=Yes   R2=Yes   R3=Yes
   Joint=143   U1=Yes   U2=Yes   U3=Yes   R1=Yes   R2=Yes   R3=Yes
   Joint=172   U1=Yes   U2=Yes   U3=Yes   R1=Yes   R2=Yes   R3=Yes
   Joint=185   U1=Yes   U2=Yes   U3=Yes   R1=Yes   R2=Yes   R3=Yes
   Joint=198   U1=Yes   U2=Yes   U3=Yes   R1=Yes   R2=Yes   R3=Yes
   Joint=217   U1=Yes   U2=Yes   U3=Yes   R1=Yes   R2=Yes   R3=Yes
   Joint=233   U1=Yes   U2=Yes   U3=Yes   R1=Yes   R2=Yes   R3=Yes
   Joint=249   U1=Yes   U2=Yes   U3=Yes   R1=Yes   R2=Yes   R3=Yes
   Joint=271   U1=Yes   U2=Yes   U3=Yes   R1=Yes   R2=Yes   R3=Yes
   Joint=284   U1=Yes   U2=Yes   U3=Yes   R1=Yes   R2=Yes   R3=Yes
   Joint=297   U1=Yes   U2=Yes   U3=Yes   R1=Yes   R2=Yes   R3=Yes
   Joint=325   U1=Yes   U2=Yes   U3=Yes   R1=Yes   R2=Yes   R3=Yes
   Joint=339   U1=Yes   U2=Yes   U3=Yes   R1=Yes   R2=Yes   R3=Yes
# ... 7 like lines cut
 
TABLE:  "JOINT LOCAL AXES ASSIGNMENTS 1 - TYPICAL"
   Joint=53   AngleA=30   AngleB=0   AngleC=0   AdvanceAxes=Yes
   Joint=56   AngleA=15   AngleB=0   AngleC=0   AdvanceAxes=Yes
 
TABLE:  "JOINT LOCAL AXES ASSIGNMENTS 2 - ADVANCED"
   Joint=53   LocalPlane=31   AxOption1="Coord Dir"   AxCoordSys=GLOBAL   AxCoordDir=Z   AxVecJt1=None   AxVecJt2=None   PlOption1="Coord Dir"   PlCoordSys=GLOBAL   CoordDir1=X   CoordDir2=Y   PlVecJt1=None   PlVecJt2=None   AxVecX=0 _
        AxVecY=0   AxVecZ=1   PlVecX=1   PlVecY=0   PlVecZ=0
   Joint=56   LocalPlane=31   AxOption1="Coord Dir"   AxCoordSys=GLOBAL   AxCoordDir=Z   AxVecJt1=None   AxVecJt2=None   PlOption1="Coord Dir"   PlCoordSys=GLOBAL   CoordDir1=X   CoordDir2=Y   PlVecJt1=None   PlVecJt2=None   AxVecX=0 _
        AxVecY=0   AxVecZ=1   PlVecX=1   PlVecY=0   PlVecZ=0
 
TABLE:  "JOINT LOADS - FORCE"
   Joint=101   LoadPat=DEAD   CoordSys=GLOBAL   F1=0   F2=0   F3=-100000   M1=0   M2=0   M3=0
   Joint=102   LoadPat=DEAD   CoordSys=GLOBAL   F1=0   F2=0   F3=-100000   M1=0   M2=0   M3=0
   Joint=100   LoadPat=DEAD   CoordSys=GLOBAL   F1=0   F2=0   F3=-100000   M1=0   M2=0   M3=0
 
TABLE:  "AREA SECTION ASSIGNMENTS"
   Area=1   Section=ASEC1   MatProp=Default
   Area=2   Section=ASEC1   MatProp=Default
   Area=3   Section=ASEC1   MatProp=Default
   Area=4   Section=ASEC1   MatProp=Default
   Area=5   Section=ASEC1   MatProp=Default
   Area=6   Section=ASEC1   MatProp=Default
   Area=7   Section=ASEC1   MatProp=Default
   Area=8   Section=ASEC1   MatProp=Default
   Area=9   Section=ASEC1   MatProp=Default
   Area=10   Section=ASEC1   MatProp=Default
   Area=11   Section=ASEC1   MatProp=Default
   Area=12   Section=ASEC1   MatProp=Default
   Area=13   Section=ASEC1   MatProp=Default
   Area=14   Section=ASEC1   MatProp=Default
   Area=15   Section=ASEC1   MatProp=Default
   Area=16   Section=ASEC1   MatProp=Default
   Area=17   Section=ASEC1   MatProp=Default
   Area=18   Section=ASEC1   MatProp=Default
   Area=19   Section=ASEC1   MatProp=Default
   Area=20   Section=ASEC1   MatProp=Default
# ... 104 like lines cut
 
TABLE:  "SOLID PROPERTY ASSIGNMENTS"
   Solid=1   SolidProp=SOLID1
   Solid=2   SolidProp=SOLID1
   Solid=3   SolidProp=SOLID1
   Solid=4   SolidProp=SOLID1
   Solid=5   SolidProp=SOLID1
   Solid=6   SolidProp=SOLID1
   Solid=7   SolidProp=SOLID1
   Solid=8   SolidProp=SOLID1
   Solid=9   SolidProp=SOLID1
   Solid=10   SolidProp=SOLID1
   Solid=11   SolidProp=SOLID1
   Solid=12   SolidProp=SOLID1
   Solid=13   SolidProp=SOLID1
   Solid=14   SolidProp=SOLID1
   Solid=15   SolidProp=SOLID1
   Solid=16   SolidProp=SOLID1
   Solid=17   SolidProp=SOLID1
   Solid=18   SolidProp=SOLID1
   Solid=19   SolidProp=SOLID1
   Solid=20   SolidProp=SOLID1
# ... 228 like lines cut
 
TABLE:  "PREFERENCES - DIMENSIONAL"
   MergeTol=1   FineGrid=250   Nudge=250   SelectTol=3   SnapTol=12   SLineThick=1   PLineThick=4   MaxFont=8   MinFont=3   AutoZoom=10   ShrinkFact=70   TextFileLen=240
 
TABLE:  "PREFERENCES - STEEL DESIGN - AISC-LRFD93"
   THDesign=Envelopes   FrameType="Moment Frame"   PatLLF=.75   SRatioLimit=.95   MaxIter=1   PhiB=.9   PhiC=.85   PhiT=.9   PhiV=.9   PhiCA=.9   CheckDefl=Yes   DLRat=120   SDLAndLLRat=120   LLRat=360   TotalRat=240   NetRat=240
 
TABLE:  "PREFERENCES - CONCRETE DESIGN - ACI 318-05/IBC2003"
   THDesign=Envelopes   NumCurves=24   NumPoints=11   MinEccen=No   PatLLF=.75   UFLimit=.95   SeisCat=D   PhiT=.9   PhiCTied=.65   PhiCSpiral=.7   PhiV=.75   PhiVSeismic=.6   PhiVJoint=.85
 
TABLE:  "PREFERENCES - ALUMINUM DESIGN - AA-ASD 2000"
   THDesign=Envelopes   FrameType="Moment Frame"   SRatioLimit=1   MaxIter=1   LatFact=1.33333333333333   UseLatFact=No   Bridge=No
 
TABLE:  "PREFERENCES - COLD FORMED DESIGN - AISI-ASD96"
   THDesign=Envelopes   FrameType="Braced Frame"   SRatioLimit=1   MaxIter=1   OmegaBS=1.67   OmegaBUS=1.67   OmegaBLTB=1.67   OmegaVS=1.67   OmegaVNS=1.5   OmegaT=1.67   OmegaC=1.8
 
TABLE:  "OPTIONS - COLORS - DISPLAY"
   DeviceType=Screen   Points=Yellow   LinesFrame=Yellow   LinesFrmExt=Yellow   LinesCable=Green   LinesTendon=Green   SpringLinks=Green   Restraints=Green   Releases=Green   Axes=Cyan   Text=Green   ShadowLines=Gray8Dark _
        GuideLines=Gray8Dark   Highlight=Red   Selection=White   AreaFillBot=Red   AreaFillTop=16744703   AreaFillSd=Red   AreaEdge=DarkRed   SolidF1=Red   SolidF2=Blue   SolidF3=Green   SolidF4=Yellow   SolidF5=White   SolidF6=Cyan _
        SolidEdge=DarkRed   Floor=Gray4   Background=Black   BGLowLeft=Black   BGLowRight=Black   BGUpRight=Black   Darkness=.5
   DeviceType=Printer   Points=Gray8Dark   LinesFrame=Black   LinesFrmExt=Gray4   LinesCable=Black   LinesTendon=Black   SpringLinks=Gray8Dark   Restraints=Gray8Dark   Releases=Gray4   Axes=Black   Text=Black   ShadowLines=Gray4 _
        GuideLines=Gray4   Highlight=Black   Selection=Black   AreaFillBot=Gray4   AreaFillTop=Gray8Dark   AreaFillSd=Gray4   AreaEdge=Black   SolidF1=Gray1Light   SolidF2=Gray2   SolidF3=Gray3   SolidF4=Gray4   SolidF5=Gray5 _
        SolidF6=Gray6   SolidEdge=Black   Floor=Gray4   Background=White   BGLowLeft=White   BGLowRight=White   BGUpRight=White   Darkness=.5
   DeviceType="Color Printer"   Points=Black   LinesFrame=7303023   LinesFrmExt=White   LinesCable=Green   LinesTendon=Green   SpringLinks=Green   Restraints=9408399   Releases=Green   Axes=Cyan   Text=Black   ShadowLines=Gray8Dark _
        GuideLines=10461087   Highlight=Red   Selection=10504778   AreaFillBot=16634568   AreaFillTop=14277119   AreaFillSd=16634568   AreaEdge=7303023   SolidF1=10122991   SolidF2=16756912   SolidF3=11599795   SolidF4=12713983 _
        SolidF5=White   SolidF6=16777128   SolidEdge=7303023   Floor=13619151   Background=White   BGLowLeft=White   BGLowRight=14671839   BGUpRight=White   Darkness=.5
 
TABLE:  "OPTIONS - COLORS - OUTPUT"
   DeviceType=Screen   Contour1=13107400   Contour2=6553828   Contour3=Red   Contour4=16639   Contour5=Orange   Contour6=43775   Contour7=54527   Contour8=Yellow   Contour9=65408   Contour10=Green   Contour11=8453888   Contour12=Cyan _
        Contour13=16755200   Contour14=16733440   Contour15=Blue   Transpare=.5   Ratio1=Cyan   Ratio2=Green   Ratio3=Yellow   Ratio4=Orange   Ratio5=Red   RatioNotD=Gray4   RatioNotC=Red   RatioVal1=.5   RatioVal2=.7   RatioVal3=.9 _
        RatioVal4=1   DFillPos=Yellow   DFillNeg=Red   DFillRPos=Blue   DFillRNeg=Cyan
   DeviceType=Printer   Contour1=Black   Contour2=3158064   Contour3=4210752   Contour4=5263440   Contour5=6316128   Contour6=7368816   Contour7=Gray8Dark   Contour8=Gray7   Contour9=Gray6   Contour10=Gray5   Contour11=Gray4 _
        Contour12=Gray3   Contour13=Gray2   Contour14=Gray1Light   Contour15=White   Transpare=0   Ratio1=Gray2   Ratio2=Gray4   Ratio3=Gray8Dark   Ratio4=4210752   Ratio5=Black   RatioNotD=Gray4   RatioNotC=Black   RatioVal1=.5 _
        RatioVal2=.7   RatioVal3=.9   RatioVal4=1   DFillPos=Gray8Dark   DFillNeg=Gray8Dark   DFillRPos=4210752   DFillRNeg=4210752
   DeviceType="Color Printer"   Contour1=13107400   Contour2=6553828   Contour3=Red   Contour4=16639   Contour5=Orange   Contour6=43775   Contour7=54527   Contour8=Yellow   Contour9=65408   Contour10=Green   Contour11=8453888 _
        Contour12=Cyan   Contour13=16755200   Contour14=16733440   Contour15=Blue   Transpare=.5   Ratio1=Cyan   Ratio2=Green   Ratio3=Yellow   Ratio4=Orange   Ratio5=Red   RatioNotD=Gray4   RatioNotC=Red   RatioVal1=.5   RatioVal2=.7 _
        RatioVal3=.9   RatioVal4=1   DFillPos=Red   DFillNeg=Red   DFillRPos=Blue   DFillRNeg=Blue
 
TABLE:  "DATABASE FORMAT TYPES"
   UnitsCurr=Yes   OverrideE=No
 
TABLE:  "PROJECT INFORMATION"
   Item="Company Name"
   Item="Client Name"
   Item="Project Name"
   Item="Project Number"
   Item="Model Name"
   Item="Model Description"
   Item="Revision Number"
   Item="Frame Type"
   Item=Engineer
   Item=Checker
   Item=Supervisor
   Item="Issue Code"
   Item="Design Code"
 
TABLE:  "MATERIAL LIST 1 - BY OBJECT TYPE"
   ObjectType=Area   Material=A992Fy50   TotalWeight=8220.24002676549
   ObjectType=Solid   Material=STEEL   TotalWeight=4932.14401605928
 
TABLE:  "MATERIAL LIST 2 - BY SECTION PROPERTY"
   Section=ASEC1   ObjectType=Area   TotalWeight=8220.24002676549
   Section=SOLID1   ObjectType=Solid   TotalWeight=4932.14401605928
 
END TABLE DATA
